
OS:Version,
  {db0df20d-5de3-4c52-8ff0-da7aa3c6112a}, !- Handle
  2.9.1;                                  !- Version Identifier

OS:Schedule:Ruleset,
  {b315ab1d-7890-4966-913d-8dadb7060900}, !- Handle
  Always_On,                              !- Name
  {9f58e07a-ab75-487a-bea4-4ab31072233e}, !- Schedule Type Limits Name
  {43a28700-b951-441f-94bd-12f0e1b55942}, !- Default Day Schedule Name
  {501b430a-7a6b-4f3a-b264-865dd6b246fb}, !- Summer Design Day Schedule Name
  {0a91971a-f603-4b1c-8d2f-9e89d9b89d37}; !- Winter Design Day Schedule Name

OS:Schedule:Day,
  {43a28700-b951-441f-94bd-12f0e1b55942}, !- Handle
  Always_On_Default,                      !- Name
  {9f58e07a-ab75-487a-bea4-4ab31072233e}, !- Schedule Type Limits Name
  ,                                       !- Interpolate to Timestep
  24,                                     !- Hour 1
  0,                                      !- Minute 1
  1;                                      !- Value Until Time 1

OS:Schedule:Day,
  {cd0afa87-afe0-47a9-9781-746e4a759b28}, !- Handle
  Schedule Day 2,                         !- Name
  ,                                       !- Schedule Type Limits Name
  ,                                       !- Interpolate to Timestep
  24,                                     !- Hour 1
  0,                                      !- Minute 1
  0;                                      !- Value Until Time 1

OS:Schedule:Day,
  {0a91971a-f603-4b1c-8d2f-9e89d9b89d37}, !- Handle
  Always_On_Winter_Design_Day,            !- Name
  {9f58e07a-ab75-487a-bea4-4ab31072233e}, !- Schedule Type Limits Name
  ,                                       !- Interpolate to Timestep
  24,                                     !- Hour 1
  0,                                      !- Minute 1
  1;                                      !- Value Until Time 1

OS:Schedule:Day,
  {b555c2ec-7dc9-43c0-8bb3-48478af99902}, !- Handle
  Schedule Day 3,                         !- Name
  ,                                       !- Schedule Type Limits Name
  ,                                       !- Interpolate to Timestep
  24,                                     !- Hour 1
  0,                                      !- Minute 1
  0;                                      !- Value Until Time 1

OS:Schedule:Day,
  {501b430a-7a6b-4f3a-b264-865dd6b246fb}, !- Handle
  Always_On_Summer_Design_Day,            !- Name
  {9f58e07a-ab75-487a-bea4-4ab31072233e}, !- Schedule Type Limits Name
  ,                                       !- Interpolate to Timestep
  24,                                     !- Hour 1
  0,                                      !- Minute 1
  1;                                      !- Value Until Time 1

OS:Schedule:Ruleset,
  {1c4a7de7-2525-4e37-8173-11872cf82cba}, !- Handle
  Always_Off,                             !- Name
  ,                                       !- Schedule Type Limits Name
  {981c0342-0ed6-498c-95d2-4d64f4d535f4}, !- Default Day Schedule Name
  {b39bea32-0b1e-49be-ac03-749a8cf0b75b}, !- Summer Design Day Schedule Name
  {6868fa89-f577-4b43-bd92-d8278aafd8fc}; !- Winter Design Day Schedule Name

OS:Schedule:Day,
  {981c0342-0ed6-498c-95d2-4d64f4d535f4}, !- Handle
  Always_Off_Default,                     !- Name
  ,                                       !- Schedule Type Limits Name
  ,                                       !- Interpolate to Timestep
  24,                                     !- Hour 1
  0,                                      !- Minute 1
  0;                                      !- Value Until Time 1

OS:Schedule:Day,
  {5d2682c0-c525-451c-ab0d-e74c1e277025}, !- Handle
  Schedule Day 4,                         !- Name
  ,                                       !- Schedule Type Limits Name
  ,                                       !- Interpolate to Timestep
  24,                                     !- Hour 1
  0,                                      !- Minute 1
  0;                                      !- Value Until Time 1

OS:Schedule:Day,
  {6868fa89-f577-4b43-bd92-d8278aafd8fc}, !- Handle
  Always_Off_Winter_Design_Day,           !- Name
  ,                                       !- Schedule Type Limits Name
  ,                                       !- Interpolate to Timestep
  24,                                     !- Hour 1
  0,                                      !- Minute 1
  0;                                      !- Value Until Time 1

OS:Schedule:Day,
  {c4914397-4210-4d7e-b5cb-9d902e262f40}, !- Handle
  Schedule Day 5,                         !- Name
  ,                                       !- Schedule Type Limits Name
  ,                                       !- Interpolate to Timestep
  24,                                     !- Hour 1
  0,                                      !- Minute 1
  0;                                      !- Value Until Time 1

OS:Schedule:Day,
  {b39bea32-0b1e-49be-ac03-749a8cf0b75b}, !- Handle
  Always_Off_Summer_Design_Day,           !- Name
  ,                                       !- Schedule Type Limits Name
  ,                                       !- Interpolate to Timestep
  24,                                     !- Hour 1
  0,                                      !- Minute 1
  0;                                      !- Value Until Time 1

OS:Schedule:Ruleset,
  {f07d4524-f8e9-425a-a36e-b41696430a3b}, !- Handle
  Deck_Temperature,                       !- Name
  ,                                       !- Schedule Type Limits Name
  {52aa32fd-2168-4556-aa45-3ee82561de69}, !- Default Day Schedule Name
  {867d657c-30c1-40b2-bb6e-2ef261ab4486}, !- Summer Design Day Schedule Name
  {8825725a-d0db-4dcc-93f5-33224290d582}; !- Winter Design Day Schedule Name

OS:Schedule:Day,
  {52aa32fd-2168-4556-aa45-3ee82561de69}, !- Handle
  Deck_Temperature_Default,               !- Name
  ,                                       !- Schedule Type Limits Name
  ,                                       !- Interpolate to Timestep
  24,                                     !- Hour 1
  0,                                      !- Minute 1
  12.8;                                   !- Value Until Time 1

OS:Schedule:Day,
  {48f97719-205c-4e6a-bb53-80c701c80055}, !- Handle
  Schedule Day 6,                         !- Name
  ,                                       !- Schedule Type Limits Name
  ,                                       !- Interpolate to Timestep
  24,                                     !- Hour 1
  0,                                      !- Minute 1
  0;                                      !- Value Until Time 1

OS:Schedule:Day,
  {8825725a-d0db-4dcc-93f5-33224290d582}, !- Handle
  Deck_Temperature_Winter_Design_Day,     !- Name
  ,                                       !- Schedule Type Limits Name
  ,                                       !- Interpolate to Timestep
  24,                                     !- Hour 1
  0,                                      !- Minute 1
  12.8;                                   !- Value Until Time 1

OS:Schedule:Day,
  {b39bd9c1-39a8-4d71-a5c7-a4baa991cb35}, !- Handle
  Schedule Day 7,                         !- Name
  ,                                       !- Schedule Type Limits Name
  ,                                       !- Interpolate to Timestep
  24,                                     !- Hour 1
  0,                                      !- Minute 1
  0;                                      !- Value Until Time 1

OS:Schedule:Day,
  {867d657c-30c1-40b2-bb6e-2ef261ab4486}, !- Handle
  Deck_Temperature_Summer_Design_Day,     !- Name
  ,                                       !- Schedule Type Limits Name
  ,                                       !- Interpolate to Timestep
  24,                                     !- Hour 1
  0,                                      !- Minute 1
  12.8;                                   !- Value Until Time 1

OS:Schedule:Compact,
  {cd1161fb-ea73-475a-b7c2-2a87b5de924a}, !- Handle
  DOAS Compact Sched,                     !- Name
  ,                                       !- Schedule Type Limits Name
  Through: 12/31,                         !- Field 1
  For: AllDays,                           !- Field 2
  Until: 24:00,                           !- Field 3
  12.78;                                  !- Field 4

OS:Schedule:Compact,
  {e8162015-232e-4f7d-8a7f-cca5c6330c7e}, !- Handle
  DOAS TSPR Compact Sched,                !- Name
  ,                                       !- Schedule Type Limits Name
  Through: 12/31,                         !- Field 1
  For: AllDays,                           !- Field 2
  Until: 24:00,                           !- Field 3
  15.56;                                  !- Field 4

OS:Construction,
  {68fe104a-538c-427b-86e0-9ca0764f012e}, !- Handle
  INT-FLOOR-TOPSIDE,                      !- Name
  ,                                       !- Surface Rendering Name
  {136e4e13-f3ad-4060-9a63-b5667412d931}, !- Layer 1
  {3f932845-5f09-48ee-ae57-416cea1ca4b3}, !- Layer 2
  {690b67fb-b077-4b9e-a7a2-e78dc85a4846}; !- Layer 3

OS:Material,
  {136e4e13-f3ad-4060-9a63-b5667412d931}, !- Handle
  1/2IN Gypsum,                           !- Name
  Smooth,                                 !- Roughness
  0.0127,                                 !- Thickness {m}
  0.1600,                                 !- Conductivity {W/m-K}
  784.9000,                               !- Density {kg/m3}
  830.0000,                               !- Specific Heat {J/kg-K}
  0.9000,                                 !- Thermal Absorptance
  0.9200,                                 !- Solar Absorptance
  0.9200;                                 !- Visible Absorptance

OS:Material,
  {3f932845-5f09-48ee-ae57-416cea1ca4b3}, !- Handle
  4IN CONCRETE HW,                        !- Name
  Rough,                                  !- Roughness
  0.1016,                                 !- Thickness {m}
  1.3110,                                 !- Conductivity {W/m-K}
  2240.0000,                              !- Density {kg/m3}
  836.8000,                               !- Specific Heat {J/kg-K}
  0.9000,                                 !- Thermal Absorptance
  0.7000,                                 !- Solar Absorptance
  0.7000;                                 !- Visible Absorptance

OS:Material:NoMass,
  {690b67fb-b077-4b9e-a7a2-e78dc85a4846}, !- Handle
  CP02 CARPET PAD,                        !- Name
  VeryRough,                              !- Roughness
  0.2165,                                 !- Thermal Resistance {m2-K/W}
  0.9000,                                 !- Thermal Absorptance
  0.7000,                                 !- Solar Absorptance
  0.8000;                                 !- Visible Absorptance

OS:StandardsInformation:Construction,
  {b5ef8e9c-cf0c-4e12-a506-f4ff95b9bfc4}, !- Handle
  {68fe104a-538c-427b-86e0-9ca0764f012e}, ! Construction Name
  ,                                       ! Intended Surface Type
  Mass,                                   ! Construction Type
  0,                                      ! Perturbable Layer
  Insulation,                             ! Perturbable Layer Type
  ;                                       ! Other Perturbable Layer Type

OS:Construction,
  {240e3e78-e085-4c71-97b0-58ac2ab1496a}, !- Handle
  INT-FLOOR-UNDERSIDE,                    !- Name
  ,                                       !- Surface Rendering Name
  {690b67fb-b077-4b9e-a7a2-e78dc85a4846}, !- Layer 1
  {3f932845-5f09-48ee-ae57-416cea1ca4b3}, !- Layer 2
  {136e4e13-f3ad-4060-9a63-b5667412d931}; !- Layer 3

OS:StandardsInformation:Construction,
  {666b090e-13ff-40ad-ae61-aadda7eca7eb}, !- Handle
  {240e3e78-e085-4c71-97b0-58ac2ab1496a}, ! Construction Name
  ,                                       ! Intended Surface Type
  Mass,                                   ! Construction Type
  1,                                      ! Perturbable Layer
  Insulation,                             ! Perturbable Layer Type
  ;                                       ! Other Perturbable Layer Type

OS:Construction,
  {2a683ccc-2e78-4f29-bca2-8656b3331a59}, !- Handle
  Standard_Int-Wall,                      !- Name
  ,                                       !- Surface Rendering Name
  {136e4e13-f3ad-4060-9a63-b5667412d931}, !- Layer 1
  {136e4e13-f3ad-4060-9a63-b5667412d931}; !- Layer 2

OS:StandardsInformation:Construction,
  {35735072-7d50-4db7-9033-187a0648db89}, !- Handle
  {2a683ccc-2e78-4f29-bca2-8656b3331a59}, ! Construction Name
  ,                                       ! Intended Surface Type
  Mass,                                   ! Construction Type
  0,                                      ! Perturbable Layer
  Insulation,                             ! Perturbable Layer Type
  ;                                       ! Other Perturbable Layer Type

OS:DefaultSurfaceConstructions,
  {4236f151-5260-43ad-b42b-487fc6abb2ff}, !- Handle
  Default Surface Constructions 1,        !- Name
  {68fe104a-538c-427b-86e0-9ca0764f012e}, !- Floor Construction Name
  {2a683ccc-2e78-4f29-bca2-8656b3331a59}, !- Wall Construction Name
  {240e3e78-e085-4c71-97b0-58ac2ab1496a}; !- Roof Ceiling Construction Name

OS:DefaultConstructionSet,
  {56eccfe4-51e2-452b-8809-b519e7206b36}, !- Handle
  Default Construction Set 1,             !- Name
  ,                                       !- Default Exterior Surface Constructions Name
  {4236f151-5260-43ad-b42b-487fc6abb2ff}, !- Default Interior Surface Constructions Name
  ,                                       !- Default Ground Contact Surface Constructions Name
  ,                                       !- Default Exterior SubSurface Constructions Name
  ,                                       !- Default Interior SubSurface Constructions Name
  ,                                       !- Interior Partition Construction Name
  ,                                       !- Space Shading Construction Name
  ,                                       !- Building Shading Construction Name
  ,                                       !- Site Shading Construction Name
  ;                                       !- Adiabatic Surface Construction Name

OS:Building,
  {944a9a7f-c62c-49ac-baf7-1e3648a03dfe}, !- Handle
  Building 1,                             !- Name
  ,                                       !- Building Sector Type
  ,                                       !- North Axis {deg}
  ,                                       !- Nominal Floor to Floor Height {m}
  ,                                       !- Space Type Name
  {56eccfe4-51e2-452b-8809-b519e7206b36}, !- Default Construction Set Name
  ;                                       !- Default Schedule Set Name

OS:Schedule:Ruleset,
  {a41a2119-f703-4521-8f01-3f6a50df947a}, !- Handle
  PNNL_TSPR_Retail_Hvac_Schedule,         !- Name
  {9f58e07a-ab75-487a-bea4-4ab31072233e}, !- Schedule Type Limits Name
  {9a48013c-e2b9-479c-8f2b-cf037d8254b5}, !- Default Day Schedule Name
  {14798d60-fa35-4bb5-8a1c-8bd47c690e9b}, !- Summer Design Day Schedule Name
  {a6c4f6ee-dec1-4208-9dae-e9c2b4b13882}; !- Winter Design Day Schedule Name

OS:Schedule:Day,
  {9a48013c-e2b9-479c-8f2b-cf037d8254b5}, !- Handle
  PNNL_TSPR_Retail_Hvac_Schedule_Week_Day, !- Name
  {9f58e07a-ab75-487a-bea4-4ab31072233e}, !- Schedule Type Limits Name
  ,                                       !- Interpolate to Timestep
  1,                                      !- Hour 1
  0,                                      !- Minute 1
  0,                                      !- Value Until Time 1
  2,                                      !- Hour 2
  0,                                      !- Minute 2
  0,                                      !- Value Until Time 2
  3,                                      !- Hour 3
  0,                                      !- Minute 3
  0,                                      !- Value Until Time 3
  4,                                      !- Hour 4
  0,                                      !- Minute 4
  0,                                      !- Value Until Time 4
  5,                                      !- Hour 5
  0,                                      !- Minute 5
  0,                                      !- Value Until Time 5
  6,                                      !- Hour 6
  0,                                      !- Minute 6
  0,                                      !- Value Until Time 6
  7,                                      !- Hour 7
  0,                                      !- Minute 7
  0,                                      !- Value Until Time 7
  8,                                      !- Hour 8
  0,                                      !- Minute 8
  1,                                      !- Value Until Time 8
  9,                                      !- Hour 9
  0,                                      !- Minute 9
  1,                                      !- Value Until Time 9
  10,                                     !- Hour 10
  0,                                      !- Minute 10
  1,                                      !- Value Until Time 10
  11,                                     !- Hour 11
  0,                                      !- Minute 11
  1,                                      !- Value Until Time 11
  12,                                     !- Hour 12
  0,                                      !- Minute 12
  1,                                      !- Value Until Time 12
  13,                                     !- Hour 13
  0,                                      !- Minute 13
  1,                                      !- Value Until Time 13
  14,                                     !- Hour 14
  0,                                      !- Minute 14
  1,                                      !- Value Until Time 14
  15,                                     !- Hour 15
  0,                                      !- Minute 15
  1,                                      !- Value Until Time 15
  16,                                     !- Hour 16
  0,                                      !- Minute 16
  1,                                      !- Value Until Time 16
  17,                                     !- Hour 17
  0,                                      !- Minute 17
  1,                                      !- Value Until Time 17
  18,                                     !- Hour 18
  0,                                      !- Minute 18
  1,                                      !- Value Until Time 18
  19,                                     !- Hour 19
  0,                                      !- Minute 19
  1,                                      !- Value Until Time 19
  20,                                     !- Hour 20
  0,                                      !- Minute 20
  1,                                      !- Value Until Time 20
  21,                                     !- Hour 21
  0,                                      !- Minute 21
  1,                                      !- Value Until Time 21
  22,                                     !- Hour 22
  0,                                      !- Minute 22
  1,                                      !- Value Until Time 22
  23,                                     !- Hour 23
  0,                                      !- Minute 23
  0,                                      !- Value Until Time 23
  24,                                     !- Hour 24
  0,                                      !- Minute 24
  0;                                      !- Value Until Time 24

OS:Schedule:Day,
  {14798d60-fa35-4bb5-8a1c-8bd47c690e9b}, !- Handle
  PNNL_TSPR_Retail_Hvac_Schedule_Summer_Design_Day, !- Name
  {9f58e07a-ab75-487a-bea4-4ab31072233e}, !- Schedule Type Limits Name
  ,                                       !- Interpolate to Timestep
  1,                                      !- Hour 1
  0,                                      !- Minute 1
  0,                                      !- Value Until Time 1
  2,                                      !- Hour 2
  0,                                      !- Minute 2
  0,                                      !- Value Until Time 2
  3,                                      !- Hour 3
  0,                                      !- Minute 3
  0,                                      !- Value Until Time 3
  4,                                      !- Hour 4
  0,                                      !- Minute 4
  0,                                      !- Value Until Time 4
  5,                                      !- Hour 5
  0,                                      !- Minute 5
  0,                                      !- Value Until Time 5
  6,                                      !- Hour 6
  0,                                      !- Minute 6
  0,                                      !- Value Until Time 6
  7,                                      !- Hour 7
  0,                                      !- Minute 7
  0,                                      !- Value Until Time 7
  8,                                      !- Hour 8
  0,                                      !- Minute 8
  1,                                      !- Value Until Time 8
  9,                                      !- Hour 9
  0,                                      !- Minute 9
  1,                                      !- Value Until Time 9
  10,                                     !- Hour 10
  0,                                      !- Minute 10
  1,                                      !- Value Until Time 10
  11,                                     !- Hour 11
  0,                                      !- Minute 11
  1,                                      !- Value Until Time 11
  12,                                     !- Hour 12
  0,                                      !- Minute 12
  1,                                      !- Value Until Time 12
  13,                                     !- Hour 13
  0,                                      !- Minute 13
  1,                                      !- Value Until Time 13
  14,                                     !- Hour 14
  0,                                      !- Minute 14
  1,                                      !- Value Until Time 14
  15,                                     !- Hour 15
  0,                                      !- Minute 15
  1,                                      !- Value Until Time 15
  16,                                     !- Hour 16
  0,                                      !- Minute 16
  1,                                      !- Value Until Time 16
  17,                                     !- Hour 17
  0,                                      !- Minute 17
  1,                                      !- Value Until Time 17
  18,                                     !- Hour 18
  0,                                      !- Minute 18
  1,                                      !- Value Until Time 18
  19,                                     !- Hour 19
  0,                                      !- Minute 19
  1,                                      !- Value Until Time 19
  20,                                     !- Hour 20
  0,                                      !- Minute 20
  1,                                      !- Value Until Time 20
  21,                                     !- Hour 21
  0,                                      !- Minute 21
  1,                                      !- Value Until Time 21
  22,                                     !- Hour 22
  0,                                      !- Minute 22
  1,                                      !- Value Until Time 22
  23,                                     !- Hour 23
  0,                                      !- Minute 23
  0,                                      !- Value Until Time 23
  24,                                     !- Hour 24
  0,                                      !- Minute 24
  0;                                      !- Value Until Time 24

OS:Schedule:Day,
  {a6c4f6ee-dec1-4208-9dae-e9c2b4b13882}, !- Handle
  PNNL_TSPR_Retail_Hvac_Schedule_Winter_Design_Day, !- Name
  {9f58e07a-ab75-487a-bea4-4ab31072233e}, !- Schedule Type Limits Name
  ,                                       !- Interpolate to Timestep
  1,                                      !- Hour 1
  0,                                      !- Minute 1
  0,                                      !- Value Until Time 1
  2,                                      !- Hour 2
  0,                                      !- Minute 2
  0,                                      !- Value Until Time 2
  3,                                      !- Hour 3
  0,                                      !- Minute 3
  0,                                      !- Value Until Time 3
  4,                                      !- Hour 4
  0,                                      !- Minute 4
  0,                                      !- Value Until Time 4
  5,                                      !- Hour 5
  0,                                      !- Minute 5
  0,                                      !- Value Until Time 5
  6,                                      !- Hour 6
  0,                                      !- Minute 6
  0,                                      !- Value Until Time 6
  7,                                      !- Hour 7
  0,                                      !- Minute 7
  0,                                      !- Value Until Time 7
  8,                                      !- Hour 8
  0,                                      !- Minute 8
  1,                                      !- Value Until Time 8
  9,                                      !- Hour 9
  0,                                      !- Minute 9
  1,                                      !- Value Until Time 9
  10,                                     !- Hour 10
  0,                                      !- Minute 10
  1,                                      !- Value Until Time 10
  11,                                     !- Hour 11
  0,                                      !- Minute 11
  1,                                      !- Value Until Time 11
  12,                                     !- Hour 12
  0,                                      !- Minute 12
  1,                                      !- Value Until Time 12
  13,                                     !- Hour 13
  0,                                      !- Minute 13
  1,                                      !- Value Until Time 13
  14,                                     !- Hour 14
  0,                                      !- Minute 14
  1,                                      !- Value Until Time 14
  15,                                     !- Hour 15
  0,                                      !- Minute 15
  1,                                      !- Value Until Time 15
  16,                                     !- Hour 16
  0,                                      !- Minute 16
  1,                                      !- Value Until Time 16
  17,                                     !- Hour 17
  0,                                      !- Minute 17
  1,                                      !- Value Until Time 17
  18,                                     !- Hour 18
  0,                                      !- Minute 18
  1,                                      !- Value Until Time 18
  19,                                     !- Hour 19
  0,                                      !- Minute 19
  1,                                      !- Value Until Time 19
  20,                                     !- Hour 20
  0,                                      !- Minute 20
  1,                                      !- Value Until Time 20
  21,                                     !- Hour 21
  0,                                      !- Minute 21
  1,                                      !- Value Until Time 21
  22,                                     !- Hour 22
  0,                                      !- Minute 22
  1,                                      !- Value Until Time 22
  23,                                     !- Hour 23
  0,                                      !- Minute 23
  1,                                      !- Value Until Time 23
  24,                                     !- Hour 24
  0,                                      !- Minute 24
  0;                                      !- Value Until Time 24

OS:Schedule:Rule,
  {fdaa13f8-0766-4bc3-a153-76232a53a915}, !- Handle
  PNNL_TSPR_Retail_Hvac_Schedule_Sunday_Rule, !- Name
  {a41a2119-f703-4521-8f01-3f6a50df947a}, !- Schedule Ruleset Name
  0,                                      !- Rule Order
  {54f92f08-fde4-40e2-af64-1283067f1294}, !- Day Schedule Name
  Yes;                                    !- Apply Sunday

OS:Schedule:Day,
  {54f92f08-fde4-40e2-af64-1283067f1294}, !- Handle
  PNNL_TSPR_Retail_Hvac_Schedule_Sunday,  !- Name
  {9f58e07a-ab75-487a-bea4-4ab31072233e}, !- Schedule Type Limits Name
  ,                                       !- Interpolate to Timestep
  1,                                      !- Hour 1
  0,                                      !- Minute 1
  0,                                      !- Value Until Time 1
  2,                                      !- Hour 2
  0,                                      !- Minute 2
  0,                                      !- Value Until Time 2
  3,                                      !- Hour 3
  0,                                      !- Minute 3
  0,                                      !- Value Until Time 3
  4,                                      !- Hour 4
  0,                                      !- Minute 4
  0,                                      !- Value Until Time 4
  5,                                      !- Hour 5
  0,                                      !- Minute 5
  0,                                      !- Value Until Time 5
  6,                                      !- Hour 6
  0,                                      !- Minute 6
  0,                                      !- Value Until Time 6
  7,                                      !- Hour 7
  0,                                      !- Minute 7