
OS:Version,
  {1ff5c4b1-0c90-4704-9ce1-211b5376179d}, !- Handle
  2.9.1;                                  !- Version Identifier

OS:Schedule:Ruleset,
  {fbf1d8c4-6e0c-4bad-8541-600515bac8bb}, !- Handle
  Always_On,                              !- Name
  ,                                       !- Schedule Type Limits Name
  {dfe51be1-adfb-4f65-a855-ea1067422fc2}, !- Default Day Schedule Name
  {265cf84c-d6d9-4176-bfe5-826caacea321}, !- Summer Design Day Schedule Name
  {8f890d37-ebc5-4078-ab19-e771ea0a535d}; !- Winter Design Day Schedule Name

OS:Schedule:Day,
  {dfe51be1-adfb-4f65-a855-ea1067422fc2}, !- Handle
  Always_On_Default,                      !- Name
  ,                                       !- Schedule Type Limits Name
  ,                                       !- Interpolate to Timestep
  24,                                     !- Hour 1
  0,                                      !- Minute 1
  1;                                      !- Value Until Time 1

OS:Schedule:Day,
  {3eb0edc8-6bd4-4be7-a87a-4407664cfe6a}, !- Handle
  Schedule Day 2,                         !- Name
  ,                                       !- Schedule Type Limits Name
  ,                                       !- Interpolate to Timestep
  24,                                     !- Hour 1
  0,                                      !- Minute 1
  0;                                      !- Value Until Time 1

OS:Schedule:Day,
  {8f890d37-ebc5-4078-ab19-e771ea0a535d}, !- Handle
  Always_On_Winter_Design_Day,            !- Name
  ,                                       !- Schedule Type Limits Name
  ,                                       !- Interpolate to Timestep
  24,                                     !- Hour 1
  0,                                      !- Minute 1
  1;                                      !- Value Until Time 1

OS:Schedule:Day,
  {d130c976-d65a-4d28-86bf-454adb846056}, !- Handle
  Schedule Day 3,                         !- Name
  ,                                       !- Schedule Type Limits Name
  ,                                       !- Interpolate to Timestep
  24,                                     !- Hour 1
  0,                                      !- Minute 1
  0;                                      !- Value Until Time 1

OS:Schedule:Day,
  {265cf84c-d6d9-4176-bfe5-826caacea321}, !- Handle
  Always_On_Summer_Design_Day,            !- Name
  ,                                       !- Schedule Type Limits Name
  ,                                       !- Interpolate to Timestep
  24,                                     !- Hour 1
  0,                                      !- Minute 1
  1;                                      !- Value Until Time 1

OS:Schedule:Ruleset,
  {a6e89bf3-aaad-4038-b13d-99cd9de8b7fa}, !- Handle
  Always_Off,                             !- Name
  ,                                       !- Schedule Type Limits Name
  {37734c03-3d81-49bb-a00c-05c10f512f9b}, !- Default Day Schedule Name
  {ea50711c-406c-4857-ae39-ff7a4bf0ad05}, !- Summer Design Day Schedule Name
  {f5e1d723-4f4b-4b26-a06b-befc7fc6d4de}; !- Winter Design Day Schedule Name

OS:Schedule:Day,
  {37734c03-3d81-49bb-a00c-05c10f512f9b}, !- Handle
  Always_Off_Default,                     !- Name
  ,                                       !- Schedule Type Limits Name
  ,                                       !- Interpolate to Timestep
  24,                                     !- Hour 1
  0,                                      !- Minute 1
  0;                                      !- Value Until Time 1

OS:Schedule:Day,
  {fcedc78e-d797-4a54-912d-e1f6371d808c}, !- Handle
  Schedule Day 4,                         !- Name
  ,                                       !- Schedule Type Limits Name
  ,                                       !- Interpolate to Timestep
  24,                                     !- Hour 1
  0,                                      !- Minute 1
  0;                                      !- Value Until Time 1

OS:Schedule:Day,
  {f5e1d723-4f4b-4b26-a06b-befc7fc6d4de}, !- Handle
  Always_Off_Winter_Design_Day,           !- Name
  ,                                       !- Schedule Type Limits Name
  ,                                       !- Interpolate to Timestep
  24,                                     !- Hour 1
  0,                                      !- Minute 1
  0;                                      !- Value Until Time 1

OS:Schedule:Day,
  {fe665505-3132-4044-bffc-adef6c619b7d}, !- Handle
  Schedule Day 5,                         !- Name
  ,                                       !- Schedule Type Limits Name
  ,                                       !- Interpolate to Timestep
  24,                                     !- Hour 1
  0,                                      !- Minute 1
  0;                                      !- Value Until Time 1

OS:Schedule:Day,
  {ea50711c-406c-4857-ae39-ff7a4bf0ad05}, !- Handle
  Always_Off_Summer_Design_Day,           !- Name
  ,                                       !- Schedule Type Limits Name
  ,                                       !- Interpolate to Timestep
  24,                                     !- Hour 1
  0,                                      !- Minute 1
  0;                                      !- Value Until Time 1

OS:Schedule:Ruleset,
  {6c904100-acc7-4c3c-9b06-08ba6766a85a}, !- Handle
  Deck_Temperature,                       !- Name
  ,                                       !- Schedule Type Limits Name
  {89b33e89-b5bf-4369-944e-50e1c2d4bc98}, !- Default Day Schedule Name
  {c4677bf2-d514-410f-9329-281070518002}, !- Summer Design Day Schedule Name
  {de21c4d3-4636-4d85-991b-9a61cdc980c1}; !- Winter Design Day Schedule Name

OS:Schedule:Day,
  {89b33e89-b5bf-4369-944e-50e1c2d4bc98}, !- Handle
  Deck_Temperature_Default,               !- Name
  ,                                       !- Schedule Type Limits Name
  ,                                       !- Interpolate to Timestep
  24,                                     !- Hour 1
  0,                                      !- Minute 1
  12.8;                                   !- Value Until Time 1

OS:Schedule:Day,
  {8acc9297-eb80-48ba-912b-3bc6af4b7ca0}, !- Handle
  Schedule Day 6,                         !- Name
  ,                                       !- Schedule Type Limits Name
  ,                                       !- Interpolate to Timestep
  24,                                     !- Hour 1
  0,                                      !- Minute 1
  0;                                      !- Value Until Time 1

OS:Schedule:Day,
  {de21c4d3-4636-4d85-991b-9a61cdc980c1}, !- Handle
  Deck_Temperature_Winter_Design_Day,     !- Name
  ,                                       !- Schedule Type Limits Name
  ,                                       !- Interpolate to Timestep
  24,                                     !- Hour 1
  0,                                      !- Minute 1
  12.8;                                   !- Value Until Time 1

OS:Schedule:Day,
  {c103abf5-e482-4a2e-94b3-613e28d4696b}, !- Handle
  Schedule Day 7,                         !- Name
  ,                                       !- Schedule Type Limits Name
  ,                                       !- Interpolate to Timestep
  24,                                     !- Hour 1
  0,                                      !- Minute 1
  0;                                      !- Value Until Time 1

OS:Schedule:Day,
  {c4677bf2-d514-410f-9329-281070518002}, !- Handle
  Deck_Temperature_Summer_Design_Day,     !- Name
  ,                                       !- Schedule Type Limits Name
  ,                                       !- Interpolate to Timestep
  24,                                     !- Hour 1
  0,                                      !- Minute 1
  12.8;                                   !- Value Until Time 1

OS:Construction,
  {a81150e3-aac5-4b20-bcd4-279d9e297cb4}, !- Handle
  INT-FLOOR-TOPSIDE,                      !- Name
  ,                                       !- Surface Rendering Name
  {625893b7-d94e-4cc4-96b1-554ee53bcde3}, !- Layer 1
  {8ea4e5de-0079-460f-9236-43b3fb3d9c83}, !- Layer 2
  {71482f2c-3097-4452-8195-5dd7ec6d155d}; !- Layer 3

OS:Material,
  {625893b7-d94e-4cc4-96b1-554ee53bcde3}, !- Handle
  1/2IN Gypsum,                           !- Name
  Smooth,                                 !- Roughness
  0.0127,                                 !- Thickness {m}
  0.1600,                                 !- Conductivity {W/m-K}
  784.9000,                               !- Density {kg/m3}
  830.0000,                               !- Specific Heat {J/kg-K}
  0.9000,                                 !- Thermal Absorptance
  0.9200,                                 !- Solar Absorptance
  0.9200;                                 !- Visible Absorptance

OS:Material,
  {8ea4e5de-0079-460f-9236-43b3fb3d9c83}, !- Handle
  4IN CONCRETE HW,                        !- Name
  Rough,                                  !- Roughness
  0.1016,                                 !- Thickness {m}
  1.3110,                                 !- Conductivity {W/m-K}
  2240.0000,                              !- Density {kg/m3}
  836.8000,                               !- Specific Heat {J/kg-K}
  0.9000,                                 !- Thermal Absorptance
  0.7000,                                 !- Solar Absorptance
  0.7000;                                 !- Visible Absorptance

OS:Material:NoMass,
  {71482f2c-3097-4452-8195-5dd7ec6d155d}, !- Handle
  CP02 CARPET PAD,                        !- Name
  VeryRough,                              !- Roughness
  0.2165,                                 !- Thermal Resistance {m2-K/W}
  0.9000,                                 !- Thermal Absorptance
  0.7000,                                 !- Solar Absorptance
  0.8000;                                 !- Visible Absorptance

OS:StandardsInformation:Construction,
  {f08af7e1-9bd7-4ff1-845e-213e25e75529}, !- Handle
  {a81150e3-aac5-4b20-bcd4-279d9e297cb4}, ! Construction Name
  ,                                       ! Intended Surface Type
  Mass,                                   ! Construction Type
  0,                                      ! Perturbable Layer
  Insulation,                             ! Perturbable Layer Type
  ;                                       ! Other Perturbable Layer Type

OS:Construction,
  {95354fb6-5082-4377-be13-949aee79bfd0}, !- Handle
  INT-FLOOR-UNDERSIDE,                    !- Name
  ,                                       !- Surface Rendering Name
  {71482f2c-3097-4452-8195-5dd7ec6d155d}, !- Layer 1
  {8ea4e5de-0079-460f-9236-43b3fb3d9c83}, !- Layer 2
  {625893b7-d94e-4cc4-96b1-554ee53bcde3}; !- Layer 3

OS:StandardsInformation:Construction,
  {3147e09d-3284-4701-aa6b-f5e807ee01a2}, !- Handle
  {95354fb6-5082-4377-be13-949aee79bfd0}, ! Construction Name
  ,                                       ! Intended Surface Type
  Mass,                                   ! Construction Type
  1,                                      ! Perturbable Layer
  Insulation,                             ! Perturbable Layer Type
  ;                                       ! Other Perturbable Layer Type

OS:Construction,
  {edb5c602-5d69-428e-a42f-15f2e51b02e6}, !- Handle
  Standard_Int-Wall,                      !- Name
  ,                                       !- Surface Rendering Name
  {625893b7-d94e-4cc4-96b1-554ee53bcde3}, !- Layer 1
  {625893b7-d94e-4cc4-96b1-554ee53bcde3}; !- Layer 2

OS:StandardsInformation:Construction,
  {366a9b68-8203-4996-a61d-e21887fdc5b5}, !- Handle
  {edb5c602-5d69-428e-a42f-15f2e51b02e6}, ! Construction Name
  ,                                       ! Intended Surface Type
  Mass,                                   ! Construction Type
  0,                                      ! Perturbable Layer
  Insulation,                             ! Perturbable Layer Type
  ;                                       ! Other Perturbable Layer Type

OS:DefaultSurfaceConstructions,
  {49545ed0-4c19-4f5a-9b54-cc9bf1a0d1f2}, !- Handle
  Default Surface Constructions 1,        !- Name
  {a81150e3-aac5-4b20-bcd4-279d9e297cb4}, !- Floor Construction Name
  {edb5c602-5d69-428e-a42f-15f2e51b02e6}, !- Wall Construction Name
  {95354fb6-5082-4377-be13-949aee79bfd0}; !- Roof Ceiling Construction Name

OS:DefaultConstructionSet,
  {d72e4e96-d452-4cbb-819a-7c0a508c12b2}, !- Handle
  Default Construction Set 1,             !- Name
  ,                                       !- Default Exterior Surface Constructions Name
  {49545ed0-4c19-4f5a-9b54-cc9bf1a0d1f2}, !- Default Interior Surface Constructions Name
  ,                                       !- Default Ground Contact Surface Constructions Name
  ,                                       !- Default Exterior SubSurface Constructions Name
  ,                                       !- Default Interior SubSurface Constructions Name
  ,                                       !- Interior Partition Construction Name
  ,                                       !- Space Shading Construction Name
  ,                                       !- Building Shading Construction Name
  ,                                       !- Site Shading Construction Name
  ;                                       !- Adiabatic Surface Construction Name

OS:Building,
  {0ad82016-600c-4331-a381-e24131d355c1}, !- Handle
  Building 1,                             !- Name
  ,                                       !- Building Sector Type
  ,                                       !- North Axis {deg}
  ,                                       !- Nominal Floor to Floor Height {m}
  ,                                       !- Space Type Name
  {d72e4e96-d452-4cbb-819a-7c0a508c12b2}, !- Default Construction Set Name
  ;                                       !- Default Schedule Set Name

OS:Schedule:Ruleset,
  {e4dbcac5-e1ab-4f50-8551-0c8d253e4260}, !- Handle
  PNNL_TSPR_Office_Hvac_Schedule,         !- Name
  ,                                       !- Schedule Type Limits Name
  {dae75107-4206-41df-990a-ec8879805824}, !- Default Day Schedule Name
  {8d4483cd-c098-4051-840b-d145d26a5610}, !- Summer Design Day Schedule Name
  {37983ff9-b6fd-4fda-aea2-6b3a64c68cfe}; !- Winter Design Day Schedule Name

OS:Schedule:Day,
  {dae75107-4206-41df-990a-ec8879805824}, !- Handle
  PNNL_TSPR_Office_Hvac_Schedule_Week_Day, !- Name
  ,                                       !- Schedule Type Limits Name
  ,                                       !- Interpolate to Timestep
  1,                                      !- Hour 1
  0,                                      !- Minute 1
  0,                                      !- Value Until Time 1
  2,                                      !- Hour 2
  0,                                      !- Minute 2
  0,                                      !- Value Until Time 2
  3,                                      !- Hour 3
  0,                                      !- Minute 3
  0,                                      !- Value Until Time 3
  4,                                      !- Hour 4
  0,                                      !- Minute 4
  0,                                      !- Value Until Time 4
  5,                                      !- Hour 5
  0,                                      !- Minute 5
  0,                                      !- Value Until Time 5
  6,                                      !- Hour 6
  0,                                      !- Minute 6
  1,                                      !- Value Until Time 6
  7,                                      !- Hour 7
  0,                                      !- Minute 7
  1,                                      !- Value Until Time 7
  8,                                      !- Hour 8
  0,                                      !- Minute 8
  1,                                      !- Value Until Time 8
  9,                                      !- Hour 9
  0,                                      !- Minute 9
  1,                                      !- Value Until Time 9
  10,                                     !- Hour 10
  0,                                      !- Minute 10
  1,                                      !- Value Until Time 10
  11,                                     !- Hour 11
  0,                                      !- Minute 11
  1,                                      !- Value Until Time 11
  12,                                     !- Hour 12
  0,                                      !- Minute 12
  1,                                      !- Value Until Time 12
  13,                                     !- Hour 13
  0,                                      !- Minute 13
  1,                                      !- Value Until Time 13
  14,                                     !- Hour 14
  0,                                      !- Minute 14
  1,                                      !- Value Until Time 14
  15,                                     !- Hour 15
  0,                                      !- Minute 15
  1,                                      !- Value Until Time 15
  16,                                     !- Hour 16
  0,                                      !- Minute 16
  1,                                      !- Value Until Time 16
  17,                                     !- Hour 17
  0,                                      !- Minute 17
  1,                                      !- Value Until Time 17
  18,                                     !- Hour 18
  0,                                      !- Minute 18
  1,                                      !- Value Until Time 18
  19,                                     !- Hour 19
  0,                                      !- Minute 19
  1,                                      !- Value Until Time 19
  20,                                     !- Hour 20
  0,                                      !- Minute 20
  1,                                      !- Value Until Time 20
  21,                                     !- Hour 21
  0,                                      !- Minute 21
  1,                                      !- Value Until Time 21
  22,                                     !- Hour 22
  0,                                      !- Minute 22
  1,                                      !- Value Until Time 22
  23,                                     !- Hour 23
  0,                                      !- Minute 23
  0,                                      !- Value Until Time 23
  24,                                     !- Hour 24
  0,                                      !- Minute 24
  0;                                      !- Value Until Time 24

OS:Schedule:Day,
  {8d4483cd-c098-4051-840b-d145d26a5610}, !- Handle
  PNNL_TSPR_Office_Hvac_Schedule_Summer_Design_Day, !- Name
  ,                                       !- Schedule Type Limits Name
  ,                                       !- Interpolate to Timestep
  1,                                      !- Hour 1
  0,                                      !- Minute 1
  0,                                      !- Value Until Time 1
  2,                                      !- Hour 2
  0,                                      !- Minute 2
  0,                                      !- Value Until Time 2
  3,                                      !- Hour 3
  0,                                      !- Minute 3
  0,                                      !- Value Until Time 3
  4,                                      !- Hour 4
  0,                                      !- Minute 4
  0,                                      !- Value Until Time 4
  5,                                      !- Hour 5
  0,                                      !- Minute 5
  0,                                      !- Value Until Time 5
  6,                                      !- Hour 6
  0,                                      !- Minute 6
  1,                                      !- Value Until Time 6
  7,                                      !- Hour 7
  0,                                      !- Minute 7
  1,                                      !- Value Until Time 7
  8,                                      !- Hour 8
  0,                                      !- Minute 8
  1,                                      !- Value Until Time 8
  9,                                      !- Hour 9
  0,                                      !- Minute 9
  1,                                      !- Value Until Time 9
  10,                                     !- Hour 10
  0,                                      !- Minute 10
  1,                                      !- Value Until Time 10
  11,                                     !- Hour 11
  0,                                      !- Minute 11
  1,                                      !- Value Until Time 11
  12,                                     !- Hour 12
  0,                                      !- Minute 12
  1,                                      !- Value Until Time 12
  13,                                     !- Hour 13
  0,                                      !- Minute 13
  1,                                      !- Value Until Time 13
  14,                                     !- Hour 14
  0,                                      !- Minute 14
  1,                                      !- Value Until Time 14
  15,                                     !- Hour 15
  0,                                      !- Minute 15
  1,                                      !- Value Until Time 15
  16,                                     !- Hour 16
  0,                                      !- Minute 16
  1,                                      !- Value Until Time 16
  17,                                     !- Hour 17
  0,                                      !- Minute 17
  1,                                      !- Value Until Time 17
  18,                                     !- Hour 18
  0,                                      !- Minute 18
  1,                                      !- Value Until Time 18
  19,                                     !- Hour 19
  0,                                      !- Minute 19
  1,                                      !- Value Until Time 19
  20,                                     !- Hour 20
  0,                                      !- Minute 20
  1,                                      !- Value Until Time 20
  21,                                     !- Hour 21
  0,                                      !- Minute 21
  1,                                      !- Value Until Time 21
  22,                                     !- Hour 22
  0,                                      !- Minute 22
  1,                                      !- Value Until Time 22
  23,                                     !- Hour 23
  0,                                      !- Minute 23
  0,                                      !- Value Until Time 23
  24,                                     !- Hour 24
  0,                                      !- Minute 24
  0;                                      !- Value Until Time 24

OS:Schedule:Day,
  {37983ff9-b6fd-4fda-aea2-6b3a64c68cfe}, !- Handle
  PNNL_TSPR_Office_Hvac_Schedule_Winter_Design_Day, !- Name
  ,                                       !- Schedule Type Limits Name
  ,                                       !- Interpolate to Timestep
  1,                                      !- Hour 1
  0,                                      !- Minute 1
  0,                                      !- Value Until Time 1
  2,                                      !- Hour 2
  0,                                      !- Minute 2
  0,                                      !- Value Until Time 2
  3,                                      !- Hour 3
  0,                                      !- Minute 3
  0,                                      !- Value Until Time 3
  4,                                      !- Hour 4
  0,                                      !- Minute 4
  0,                                      !- Value Until Time 4
  5,                                      !- Hour 5
  0,                                      !- Minute 5
  0,                                      !- Value Until Time 5
  6,                                      !- Hour 6
  0,                                      !- Minute 6
  1,                                      !- Value Until Time 6
  7,                                      !- Hour 7
  0,                                      !- Minute 7
  1,                                      !- Value Until Time 7
  8,                                      !- Hour 8
  0,                                      !- Minute 8
  1,                                      !- Value Until Time 8
  9,                                      !- Hour 9
  0,                                      !- Minute 9
  1,                                      !- Value Until Time 9
  10,                                     !- Hour 10
  0,                                      !- Minute 10
  1,                                      !- Value Until Time 10
  11,                                     !- Hour 11
  0,                                      !- Minute 11
  1,                                      !- Value Until Time 11
  12,                                     !- Hour 12
  0,                                      !- Minute 12
  1,                                      !- Value Until Time 12
  13,                                     !- Hour 13
  0,                                      !- Minute 13
  1,                                      !- Value Until Time 13
  14,                                     !- Hour 14
  0,                                      !- Minute 14
  1,                                      !- Value Until Time 14
  15,                                     !- Hour 15
  0,                                      !- Minute 15
  1,                                      !- Value Until Time 15
  16,                                     !- Hour 16
  0,                                      !- Minute 16
  1,                                      !- Value Until Time 16
  17,                                     !- Hour 17
  0,                                      !- Minute 17
  1,                                      !- Value Until Time 17
  18,                                     !- Hour 18
  0,                                      !- Minute 18
  0,                                      !- Value Until Time 18
  19,                                     !- Hour 19
  0,                                      !- Minute 19
  0,                                      !- Value Until Time 19
  20,                                     !- Hour 20
  0,                                      !- Minute 20
  0,                                      !- Value Until Time 20
  21,                                     !- Hour 21
  0,                                      !- Minute 21
  0,                                      !- Value Until Time 21
  22,                                     !- Hour 22
  0,                                      !- Minute 22
  0,                                      !- Value Until Time 22
  23,                                     !- Hour 23
  0,                                      !- Minute 23
  0,                                      !- Value Until Time 23
  24,                                     !- Hour 24
  0,                                      !- Minute 24
  0;                                      !- Value Until Time 24

OS:Schedule:Rule,
  {90b547a2-7371-45f0-97eb-4293f212a34c}, !- Handle
  PNNL_TSPR_Office_Hvac_Schedule_Sunday_Rule, !- Name
  {e4dbcac5-e1ab-4f50-8551-0c8d253e4260}, !- Schedule Ruleset Name
  0,                                      !- Rule Order
  {b9272db4-34a0-4318-9aaa-89eb38f57b84}, !- Day Schedule Name
  Yes;                                    !- Apply Sunday

OS:Schedule:Day,
  {b9272db4-34a0-4318-9aaa-89eb38f57b84}, !- Handle
  PNNL_TSPR_Office_Hvac_Schedule_Sunday,  !- Name
  ,                                       !- Schedule Type Limits Name
  ,                                       !- Interpolate to Timestep
  1,                                      !- Hour 1
  0,                                      !- Minute 1
  0,                                      !- Value Until Time 1
  2,                                      !- Hour 2
  0,                                      !- Minute 2
  0,                                      !- Value Until Time 2
  3,                                      !- Hour 3
  0,                                      !- Minute 3
  0,                                      !- Value Until Time 3
  4,                                      !- Hour 4
  0,                                      !- Minute 4
  0,                                      !- Value Until Time 4
  5,                                      !- Hour 5
  0,                                      !- Minute 5
  0,                                      !- Value Until Time 5
  6,                                      !- Hour 6
  0,                                      !- Minute 6
  0,                                      !- Value Until Time 6
  7,                                      !- Hour 7
  0,                                      !- Minute 7
  0,                                      !- Value Until Time 7
  8,                                      !- Hour 8
  0,                                      !- Minute 8
  0,                                      !- Value Until Time 8
  9,                                      !- Hour 9
  0,                                      !- Minute 9
  0,                                      !- Value Until Time 9
  10,                                     !- Hour 10
  0,                                      !- Minute 10
  0,                                      !- Value Until Time 10
  11,                                     !- Hour 11
  0,                                      !- Minute 11
  0,                                      !- Value Until Time 11
  12,                                     !- Hour 12