
OS:Version,
  {8dc7d9df-4b35-4648-a1cf-773376efa606}, !- Handle
  2.9.1;                                  !- Version Identifier

OS:Schedule:Ruleset,
  {575dd5ca-0358-40eb-9547-c0911b116260}, !- Handle
  Always_On,                              !- Name
  ,                                       !- Schedule Type Limits Name
  {6b900a0d-ce8d-473f-9112-f61a1483bd5c}, !- Default Day Schedule Name
  {cb108a5a-b2a4-4c5f-9020-013afc326848}, !- Summer Design Day Schedule Name
  {50b4ef89-bc78-490a-8687-58bcabcfd7dc}; !- Winter Design Day Schedule Name

OS:Schedule:Day,
  {6b900a0d-ce8d-473f-9112-f61a1483bd5c}, !- Handle
  Always_On_Default,                      !- Name
  ,                                       !- Schedule Type Limits Name
  ,                                       !- Interpolate to Timestep
  24,                                     !- Hour 1
  0,                                      !- Minute 1
  1;                                      !- Value Until Time 1

OS:Schedule:Day,
  {7302cfdd-5178-41fb-a5e3-65d9265b0024}, !- Handle
  Schedule Day 2,                         !- Name
  ,                                       !- Schedule Type Limits Name
  ,                                       !- Interpolate to Timestep
  24,                                     !- Hour 1
  0,                                      !- Minute 1
  0;                                      !- Value Until Time 1

OS:Schedule:Day,
  {50b4ef89-bc78-490a-8687-58bcabcfd7dc}, !- Handle
  Always_On_Winter_Design_Day,            !- Name
  ,                                       !- Schedule Type Limits Name
  ,                                       !- Interpolate to Timestep
  24,                                     !- Hour 1
  0,                                      !- Minute 1
  1;                                      !- Value Until Time 1

OS:Schedule:Day,
  {eca1a5f3-0515-4a68-989c-20a8201d6bf6}, !- Handle
  Schedule Day 3,                         !- Name
  ,                                       !- Schedule Type Limits Name
  ,                                       !- Interpolate to Timestep
  24,                                     !- Hour 1
  0,                                      !- Minute 1
  0;                                      !- Value Until Time 1

OS:Schedule:Day,
  {cb108a5a-b2a4-4c5f-9020-013afc326848}, !- Handle
  Always_On_Summer_Design_Day,            !- Name
  ,                                       !- Schedule Type Limits Name
  ,                                       !- Interpolate to Timestep
  24,                                     !- Hour 1
  0,                                      !- Minute 1
  1;                                      !- Value Until Time 1

OS:Schedule:Ruleset,
  {7fe76acf-f6cc-4d49-bf4e-e3d7e4dc917c}, !- Handle
  Always_Off,                             !- Name
  ,                                       !- Schedule Type Limits Name
  {a2e16db8-4cc9-418a-9230-4751290b2bdc}, !- Default Day Schedule Name
  {8884b7f4-8cf9-47e1-b484-b5bfb8980d25}, !- Summer Design Day Schedule Name
  {18dbb626-31d2-40cb-a82c-1b5e6e1061e0}; !- Winter Design Day Schedule Name

OS:Schedule:Day,
  {a2e16db8-4cc9-418a-9230-4751290b2bdc}, !- Handle
  Always_Off_Default,                     !- Name
  ,                                       !- Schedule Type Limits Name
  ,                                       !- Interpolate to Timestep
  24,                                     !- Hour 1
  0,                                      !- Minute 1
  0;                                      !- Value Until Time 1

OS:Schedule:Day,
  {183d16e9-0890-47b1-a9a1-fa76eec41a75}, !- Handle
  Schedule Day 4,                         !- Name
  ,                                       !- Schedule Type Limits Name
  ,                                       !- Interpolate to Timestep
  24,                                     !- Hour 1
  0,                                      !- Minute 1
  0;                                      !- Value Until Time 1

OS:Schedule:Day,
  {18dbb626-31d2-40cb-a82c-1b5e6e1061e0}, !- Handle
  Always_Off_Winter_Design_Day,           !- Name
  ,                                       !- Schedule Type Limits Name
  ,                                       !- Interpolate to Timestep
  24,                                     !- Hour 1
  0,                                      !- Minute 1
  0;                                      !- Value Until Time 1

OS:Schedule:Day,
  {8a5773d8-5e03-4b05-8a78-bfed3e19b3ad}, !- Handle
  Schedule Day 5,                         !- Name
  ,                                       !- Schedule Type Limits Name
  ,                                       !- Interpolate to Timestep
  24,                                     !- Hour 1
  0,                                      !- Minute 1
  0;                                      !- Value Until Time 1

OS:Schedule:Day,
  {8884b7f4-8cf9-47e1-b484-b5bfb8980d25}, !- Handle
  Always_Off_Summer_Design_Day,           !- Name
  ,                                       !- Schedule Type Limits Name
  ,                                       !- Interpolate to Timestep
  24,                                     !- Hour 1
  0,                                      !- Minute 1
  0;                                      !- Value Until Time 1

OS:Construction,
  {36342e2b-bf6c-42d0-a571-c72ba124a710}, !- Handle
  INT-FLOOR-TOPSIDE,                      !- Name
  ,                                       !- Surface Rendering Name
  {dea0c5e0-a207-4898-90cc-a9467e1a3abd}, !- Layer 1
  {4651137e-a71a-4c55-b638-24e995a1cdb7}, !- Layer 2
  {44b55b3f-a2fd-4096-8937-bfa454d6d2b3}; !- Layer 3

OS:Material,
  {dea0c5e0-a207-4898-90cc-a9467e1a3abd}, !- Handle
  1/2IN Gypsum,                           !- Name
  Smooth,                                 !- Roughness
  0.0127,                                 !- Thickness {m}
  0.1600,                                 !- Conductivity {W/m-K}
  784.9000,                               !- Density {kg/m3}
  830.0000,                               !- Specific Heat {J/kg-K}
  0.9000,                                 !- Thermal Absorptance
  0.9200,                                 !- Solar Absorptance
  0.9200;                                 !- Visible Absorptance

OS:Material,
  {4651137e-a71a-4c55-b638-24e995a1cdb7}, !- Handle
  4IN CONCRETE HW,                        !- Name
  Rough,                                  !- Roughness
  0.1016,                                 !- Thickness {m}
  1.3110,                                 !- Conductivity {W/m-K}
  2240.0000,                              !- Density {kg/m3}
  836.8000,                               !- Specific Heat {J/kg-K}
  0.9000,                                 !- Thermal Absorptance
  0.7000,                                 !- Solar Absorptance
  0.7000;                                 !- Visible Absorptance

OS:Material:NoMass,
  {44b55b3f-a2fd-4096-8937-bfa454d6d2b3}, !- Handle
  CP02 CARPET PAD,                        !- Name
  VeryRough,                              !- Roughness
  0.2165,                                 !- Thermal Resistance {m2-K/W}
  0.9000,                                 !- Thermal Absorptance
  0.7000,                                 !- Solar Absorptance
  0.8000;                                 !- Visible Absorptance

OS:StandardsInformation:Construction,
  {047bdb3a-8b08-4ab1-b353-88196686e82a}, !- Handle
  {36342e2b-bf6c-42d0-a571-c72ba124a710}, ! Construction Name
  ,                                       ! Intended Surface Type
  Mass,                                   ! Construction Type
  0,                                      ! Perturbable Layer
  Insulation,                             ! Perturbable Layer Type
  ;                                       ! Other Perturbable Layer Type

OS:Construction,
  {b978cfbe-f51f-489f-bdb7-e558293f2c52}, !- Handle
  INT-FLOOR-UNDERSIDE,                    !- Name
  ,                                       !- Surface Rendering Name
  {44b55b3f-a2fd-4096-8937-bfa454d6d2b3}, !- Layer 1
  {4651137e-a71a-4c55-b638-24e995a1cdb7}, !- Layer 2
  {dea0c5e0-a207-4898-90cc-a9467e1a3abd}; !- Layer 3

OS:StandardsInformation:Construction,
  {9e83f816-1f6a-4f6c-89ac-a2d17541b1ac}, !- Handle
  {b978cfbe-f51f-489f-bdb7-e558293f2c52}, ! Construction Name
  ,                                       ! Intended Surface Type
  Mass,                                   ! Construction Type
  1,                                      ! Perturbable Layer
  Insulation,                             ! Perturbable Layer Type
  ;                                       ! Other Perturbable Layer Type

OS:Construction,
  {d178b908-cb94-4afd-8263-896d1ab23620}, !- Handle
  Standard_Int-Wall,                      !- Name
  ,                                       !- Surface Rendering Name
  {dea0c5e0-a207-4898-90cc-a9467e1a3abd}, !- Layer 1
  {dea0c5e0-a207-4898-90cc-a9467e1a3abd}; !- Layer 2

OS:StandardsInformation:Construction,
  {56e4a224-bcaa-485a-a07a-bcbf2c18ee1e}, !- Handle
  {d178b908-cb94-4afd-8263-896d1ab23620}, ! Construction Name
  ,                                       ! Intended Surface Type
  Mass,                                   ! Construction Type
  0,                                      ! Perturbable Layer
  Insulation,                             ! Perturbable Layer Type
  ;                                       ! Other Perturbable Layer Type

OS:DefaultSurfaceConstructions,
  {d116fdbb-8b09-4a8a-ab1f-b9a6572f1029}, !- Handle
  Default Surface Constructions 1,        !- Name
  {36342e2b-bf6c-42d0-a571-c72ba124a710}, !- Floor Construction Name
  {d178b908-cb94-4afd-8263-896d1ab23620}, !- Wall Construction Name
  {b978cfbe-f51f-489f-bdb7-e558293f2c52}; !- Roof Ceiling Construction Name

OS:DefaultConstructionSet,
  {926c7339-650e-45d3-a584-117e01b69b7e}, !- Handle
  Default Construction Set 1,             !- Name
  ,                                       !- Default Exterior Surface Constructions Name
  {d116fdbb-8b09-4a8a-ab1f-b9a6572f1029}, !- Default Interior Surface Constructions Name
  ,                                       !- Default Ground Contact Surface Constructions Name
  ,                                       !- Default Exterior SubSurface Constructions Name
  ,                                       !- Default Interior SubSurface Constructions Name
  ,                                       !- Interior Partition Construction Name
  ,                                       !- Space Shading Construction Name
  ,                                       !- Building Shading Construction Name
  ,                                       !- Site Shading Construction Name
  ;                                       !- Adiabatic Surface Construction Name

OS:Building,
  {cf6dc7a3-285e-4eb3-b145-c829e9cfee02}, !- Handle
  Building 1,                             !- Name
  ,                                       !- Building Sector Type
  ,                                       !- North Axis {deg}
  ,                                       !- Nominal Floor to Floor Height {m}
  ,                                       !- Space Type Name
  {926c7339-650e-45d3-a584-117e01b69b7e}, !- Default Construction Set Name
  ;                                       !- Default Schedule Set Name

OS:Schedule:Ruleset,
  {81988d75-9168-45b6-86aa-88c8a69f0577}, !- Handle
  PNNL_TSPR_School_Hvac_Schedule,         !- Name
  ,                                       !- Schedule Type Limits Name
  {523cc840-feb1-4882-856f-f8d183c8e0f1}, !- Default Day Schedule Name
  {6b5f81d6-7f58-4167-8f2c-b0cd1faf1f19}, !- Summer Design Day Schedule Name
  {c0d3884b-77c5-4beb-a1bf-df6b98098241}; !- Winter Design Day Schedule Name

OS:Schedule:Day,
  {523cc840-feb1-4882-856f-f8d183c8e0f1}, !- Handle
  PNNL_TSPR_School_Hvac_Schedule_Week_Day, !- Name
  ,                                       !- Schedule Type Limits Name
  ,                                       !- Interpolate to Timestep
  1,                                      !- Hour 1
  0,                                      !- Minute 1
  0,                                      !- Value Until Time 1
  2,                                      !- Hour 2
  0,                                      !- Minute 2
  0,                                      !- Value Until Time 2
  3,                                      !- Hour 3
  0,                                      !- Minute 3
  0,                                      !- Value Until Time 3
  4,                                      !- Hour 4
  0,                                      !- Minute 4
  0,                                      !- Value Until Time 4
  5,                                      !- Hour 5
  0,                                      !- Minute 5
  0,                                      !- Value Until Time 5
  6,                                      !- Hour 6
  0,                                      !- Minute 6
  0,                                      !- Value Until Time 6
  7,                                      !- Hour 7
  0,                                      !- Minute 7
  0,                                      !- Value Until Time 7
  8,                                      !- Hour 8
  0,                                      !- Minute 8
  1,                                      !- Value Until Time 8
  9,                                      !- Hour 9
  0,                                      !- Minute 9
  1,                                      !- Value Until Time 9
  10,                                     !- Hour 10
  0,                                      !- Minute 10
  1,                                      !- Value Until Time 10
  11,                                     !- Hour 11
  0,                                      !- Minute 11
  1,                                      !- Value Until Time 11
  12,                                     !- Hour 12
  0,                                      !- Minute 12
  1,                                      !- Value Until Time 12
  13,                                     !- Hour 13
  0,                                      !- Minute 13
  1,                                      !- Value Until Time 13
  14,                                     !- Hour 14
  0,                                      !- Minute 14
  1,                                      !- Value Until Time 14
  15,                                     !- Hour 15
  0,                                      !- Minute 15
  1,                                      !- Value Until Time 15
  16,                                     !- Hour 16
  0,                                      !- Minute 16
  1,                                      !- Value Until Time 16
  17,                                     !- Hour 17
  0,                                      !- Minute 17
  1,                                      !- Value Until Time 17
  18,                                     !- Hour 18
  0,                                      !- Minute 18
  1,                                      !- Value Until Time 18
  19,                                     !- Hour 19
  0,                                      !- Minute 19
  1,                                      !- Value Until Time 19
  20,                                     !- Hour 20
  0,                                      !- Minute 20
  1,                                      !- Value Until Time 20
  21,                                     !- Hour 21
  0,                                      !- Minute 21
  1,                                      !- Value Until Time 21
  22,                                     !- Hour 22
  0,                                      !- Minute 22
  0,                                      !- Value Until Time 22
  23,                                     !- Hour 23
  0,                                      !- Minute 23
  0,                                      !- Value Until Time 23
  24,                                     !- Hour 24
  0,                                      !- Minute 24
  0;                                      !- Value Until Time 24

OS:Schedule:Day,
  {6b5f81d6-7f58-4167-8f2c-b0cd1faf1f19}, !- Handle
  PNNL_TSPR_School_Hvac_Schedule_Summer_Design_Day, !- Name
  ,                                       !- Schedule Type Limits Name
  ,                                       !- Interpolate to Timestep
  1,                                      !- Hour 1
  0,                                      !- Minute 1
  0,                                      !- Value Until Time 1
  2,                                      !- Hour 2
  0,                                      !- Minute 2
  0,                                      !- Value Until Time 2
  3,                                      !- Hour 3
  0,                                      !- Minute 3
  0,                                      !- Value Until Time 3
  4,                                      !- Hour 4
  0,                                      !- Minute 4
  0,                                      !- Value Until Time 4
  5,                                      !- Hour 5
  0,                                      !- Minute 5
  0,                                      !- Value Until Time 5
  6,                                      !- Hour 6
  0,                                      !- Minute 6
  0,                                      !- Value Until Time 6
  7,                                      !- Hour 7
  0,                                      !- Minute 7
  0,                                      !- Value Until Time 7
  8,                                      !- Hour 8
  0,                                      !- Minute 8
  1,                                      !- Value Until Time 8
  9,                                      !- Hour 9
  0,                                      !- Minute 9
  1,                                      !- Value Until Time 9
  10,                                     !- Hour 10
  0,                                      !- Minute 10
  1,                                      !- Value Until Time 10
  11,                                     !- Hour 11
  0,                                      !- Minute 11
  1,                                      !- Value Until Time 11
  12,                                     !- Hour 12
  0,                                      !- Minute 12
  1,                                      !- Value Until Time 12
  13,                                     !- Hour 13
  0,                                      !- Minute 13
  1,                                      !- Value Until Time 13
  14,                                     !- Hour 14
  0,                                      !- Minute 14
  1,                                      !- Value Until Time 14
  15,                                     !- Hour 15
  0,                                      !- Minute 15
  1,                                      !- Value Until Time 15
  16,                                     !- Hour 16
  0,                                      !- Minute 16
  1,                                      !- Value Until Time 16
  17,                                     !- Hour 17
  0,                                      !- Minute 17
  1,                                      !- Value Until Time 17
  18,                                     !- Hour 18
  0,                                      !- Minute 18
  1,                                      !- Value Until Time 18
  19,                                     !- Hour 19
  0,                                      !- Minute 19
  1,                                      !- Value Until Time 19
  20,                                     !- Hour 20
  0,                                      !- Minute 20
  1,                                      !- Value Until Time 20
  21,                                     !- Hour 21
  0,                                      !- Minute 21
  1,                                      !- Value Until Time 21
  22,                                     !- Hour 22
  0,                                      !- Minute 22
  0,                                      !- Value Until Time 22
  23,                                     !- Hour 23
  0,                                      !- Minute 23
  0,                                      !- Value Until Time 23
  24,                                     !- Hour 24
  0,                                      !- Minute 24
  0;                                      !- Value Until Time 24

OS:Schedule:Day,
  {c0d3884b-77c5-4beb-a1bf-df6b98098241}, !- Handle
  PNNL_TSPR_School_Hvac_Schedule_Winter_Design_Day, !- Name
  ,                                       !- Schedule Type Limits Name
  ,                                       !- Interpolate to Timestep
  1,                                      !- Hour 1
  0,                                      !- Minute 1
  0,                                      !- Value Until Time 1
  2,                                      !- Hour 2
  0,                                      !- Minute 2
  0,                                      !- Value Until Time 2
  3,                                      !- Hour 3
  0,                                      !- Minute 3
  0,                                      !- Value Until Time 3
  4,                                      !- Hour 4
  0,                                      !- Minute 4
  0,                                      !- Value Until Time 4
  5,                                      !- Hour 5
  0,                                      !- Minute 5
  0,                                      !- Value Until Time 5
  6,                                      !- Hour 6
  0,                                      !- Minute 6
  0,                                      !- Value Until Time 6
  7,                                      !- Hour 7
  0,                                      !- Minute 7
  0,                                      !- Value Until Time 7
  8,                                      !- Hour 8
  0,                                      !- Minute 8
  0,                                      !- Value Until Time 8
  9,                                      !- Hour 9
  0,                                      !- Minute 9
  0,                                      !- Value Until Time 9
  10,                                     !- Hour 10
  0,                                      !- Minute 10
  0,                                      !- Value Until Time 10
  11,                                     !- Hour 11
  0,                                      !- Minute 11
  0,                                      !- Value Until Time 11
  12,                                     !- Hour 12
  0,                                      !- Minute 12
  0,                                      !- Value Until Time 12
  13,                                     !- Hour 13
  0,                                      !- Minute 13
  0,                                      !- Value Until Time 13
  14,                                     !- Hour 14
  0,                                      !- Minute 14
  0,                                      !- Value Until Time 14
  15,                                     !- Hour 15
  0,                                      !- Minute 15
  0,                                      !- Value Until Time 15
  16,                                     !- Hour 16
  0,                                      !- Minute 16
  0,                                      !- Value Until Time 16
  17,                                     !- Hour 17
  0,                                      !- Minute 17
  0,                                      !- Value Until Time 17
  18,                                     !- Hour 18
  0,                                      !- Minute 18
  0,                                      !- Value Until Time 18
  19,                                     !- Hour 19
  0,                                      !- Minute 19
  0,                                      !- Value Until Time 19
  20,                                     !- Hour 20
  0,                                      !- Minute 20
  0,                                      !- Value Until Time 20
  21,                                     !- Hour 21
  0,                                      !- Minute 21
  0,                                      !- Value Until Time 21
  22,                                     !- Hour 22
  0,                                      !- Minute 22
  0,                                      !- Value Until Time 22
  23,                                     !- Hour 23
  0,                                      !- Minute 23
  0,                                      !- Value Until Time 23
  24,                                     !- Hour 24
  0,                                      !- Minute 24
  0;                                      !- Value Until Time 24

OS:Schedule:Rule,
  {e41b760e-2043-409c-a332-314b10985672}, !- Handle
  PNNL_TSPR_School_Hvac_Schedule_Sunday_Rule, !- Name
  {81988d75-9168-45b6-86aa-88c8a69f0577}, !- Schedule Ruleset Name
  0,                                      !- Rule Order
  {595b924e-0404-4c33-add1-c91c519803a5}, !- Day Schedule Name
  Yes;                                    !- Apply Sunday

OS:Schedule:Day,
  {595b924e-0404-4c33-add1-c91c519803a5}, !- Handle
  PNNL_TSPR_School_Hvac_Schedule_Sunday,  !- Name
  ,                                       !- Schedule Type Limits Name
  ,                                       !- Interpolate to Timestep
  1,                                      !- Hour 1
  0,                                      !- Minute 1
  0,                                      !- Value Until Time 1
  2,                                      !- Hour 2
  0,                                      !- Minute 2
  0,                                      !- Value Until Time 2
  3,                                      !- Hour 3
  0,                                      !- Minute 3
  0,                                      !- Value Until Time 3
  4,                                      !- Hour 4
  0,                                      !- Minute 4
  0,                                      !- Value Until Time 4
  5,                                      !- Hour 5
  0,                                      !- Minute 5
  0,                                      !- Value Until Time 5
  6,                                      !- Hour 6
  0,                                      !- Minute 6
  0,                                      !- Value Until Time 6
  7,                                      !- Hour 7
  0,                                      !- Minute 7
  0,                                      !- Value Until Time 7
  8,                                      !- Hour 8
  0,                                      !- Minute 8
  0,                                      !- Value Until Time 8
  9,                                      !- Hour 9
  0,                                      !- Minute 9
  0,                                      !- Value Until Time 9
  10,                                     !- Hour 10
  0,                                      !- Minute 10
  0,                                      !- Value Until Time 10
  11,                                     !- Hour 11
  0,                                      !- Minute 11
  0,                                      !- Value Until Time 11
  12,                                     !- Hour 12
  0,                                      !- Minute 12
  0,                                      !- Value Until Time 12
  13,                                     !- Hour 13
  0,                                      !- Minute 13
  0,                                      !- Value Until Time 13
  14,                                     !- Hour 14
  0,                                      !- Minute 14
  0,                                      !- Value Until Time 14
  15,                                     !- Hour 15
  0,                                      !- Minute 15
  0,                                      !- Value Until Time 15
  16,                                     !- Hour 16
  0,                                      !- Minute 16
  0,                                      !- Value Until Time 16
  17,                                     !- Hour 17
  0,                                      !- Minute 17
  0,                                      !- Value Until Time 17
  18,                                     !- Hour 18
  0,                                      !- Minute 18
  0,                                      !- Value Until Time 18
  19,                                     !- Hour 19
  0,                                      !- Minute 19
  0,                                      !- Value Until Time 19
  20,                                     !- Hour 20
  0,                                      !- Minute 20
  0,                                      !- Value Until Time 20
  21,                                     !- Hour 21
  0,                                      !- Minute 21
  0,                                      !- Value Until Time 21
  22,                                     !- Hour 22
  0,                                      !- Minute 22
  0,                                      !- Value Until Time 22
  23,                                     !- Hour 23
  0,                                      !- Minute 23
  0,                                      !- Value Until Time 23
  24,                                     !- Hour 24
  0,                                      !- Minute 24
  0;                                      !- Value Until Time 24

OS:Schedule:Rule,
  {aca1faed-4886-4354-8600-136c1d62a1ac}, !- Handle
  PNNL_TSPR_School_Hvac_Schedule_Saturday_Rule, !- Name
  {81988d75-9168-45b6-86aa-88c8a69f0577}, !- Schedule Ruleset Name
  1,                                      !- Rule Order
  {0a3688d1-26b4-471c-bb61-bb16e63766ac}, !- Day Schedule Name
  ,                                       !- Apply Sunday