!-Generator IDFEditor 1.50
!-Option SortedOrder

!-NOTE: All comments with '!-' are ignored by the IDFEditor and are generated automatically.
!-      Use '!' comments if they need to be retained when using the IDFEditor.


!-   ===========  ALL OBJECTS IN CLASS: VERSION ===========

Version,
    9.2;                     !- Version Identifier


!-   ===========  ALL OBJECTS IN CLASS: SIMULATIONCONTROL ===========

SimulationControl,
    Yes,                     !- Do Zone Sizing Calculation
    Yes,                     !- Do System Sizing Calculation
    Yes,                     !- Do Plant Sizing Calculation
    No,                      !- Run Simulation for Sizing Periods
    Yes;                     !- Run Simulation for Weather File Run Periods


!-   ===========  ALL OBJECTS IN CLASS: BUILDING ===========

Building,
    TSPR Retail Test- Baseline same as Proposed,  !- Name
    ,                        !- North Axis {deg}
    ,                        !- Terrain
    ,                        !- Loads Convergence Tolerance Value
    ,                        !- Temperature Convergence Tolerance Value {deltaC}
    ,                        !- Solar Distribution
    ,                        !- Maximum Number of Warmup Days
    ;                        !- Minimum Number of Warmup Days


!-   ===========  ALL OBJECTS IN CLASS: SHADOWCALCULATION ===========

ShadowCalculation,
    AverageOverDaysInFrequency,  !- Calculation Method
    20,                      !- Calculation Frequency
    15000,                   !- Maximum Figures in Shadow Overlap Calculations
    SutherlandHodgman,       !- Polygon Clipping Algorithm
    SimpleSkyDiffuseModeling;!- Sky Diffuse Modeling Algorithm


!-   ===========  ALL OBJECTS IN CLASS: HEATBALANCEALGORITHM ===========

HeatBalanceAlgorithm,
    ConductionTransferFunction,  !- Algorithm
    200;                     !- Surface Temperature Upper Limit {C}


!-   ===========  ALL OBJECTS IN CLASS: TIMESTEP ===========

Timestep,
    4;                       !- Number of Timesteps per Hour


!-   ===========  ALL OBJECTS IN CLASS: SITE:LOCATION ===========

Site:Location,
    Seattle Boeing Field  Isis_WA_USA,  !- Name
    47.68,                   !- Latitude {deg}
    -122.25,                 !- Longitude {deg}
    -8,                      !- Time Zone {hr}
    20;                      !- Elevation {m}


!-   ===========  ALL OBJECTS IN CLASS: SIZINGPERIOD:DESIGNDAY ===========

SizingPeriod:DesignDay,
    Seattle Boeing Field  Isis Ann Clg .4% Condns DB=>MWB,  !- Name
    8,                       !- Month
    21,                      !- Day of Month
    SummerDesignDay,         !- Day Type
    30,                      !- Maximum Dry-Bulb Temperature {C}
    10.2,                    !- Daily Dry-Bulb Temperature Range {deltaC}
    DefaultMultipliers,      !- Dry-Bulb Temperature Range Modifier Type
    ,                        !- Dry-Bulb Temperature Range Modifier Day Schedule Name
    Wetbulb,                 !- Humidity Condition Type
    18.7,                    !- Wetbulb or DewPoint at Maximum Dry-Bulb {C}
    ,                        !- Humidity Condition Day Schedule Name
    ,                        !- Humidity Ratio at Maximum Dry-Bulb {kgWater/kgDryAir}
    ,                        !- Enthalpy at Maximum Dry-Bulb {J/kg}
    ,                        !- Daily Wet-Bulb Temperature Range {deltaC}
    101085,                  !- Barometric Pressure {Pa}
    4.5,                     !- Wind Speed {m/s}
    320,                     !- Wind Direction {deg}
    No,                      !- Rain Indicator
    No,                      !- Snow Indicator
    No,                      !- Daylight Saving Time Indicator
    ASHRAETau,               !- Solar Model Indicator
    ,                        !- Beam Solar Day Schedule Name
    ,                        !- Diffuse Solar Day Schedule Name
    0.359,                   !- ASHRAE Clear Sky Optical Depth for Beam Irradiance (taub) {dimensionless}
    2.539;                   !- ASHRAE Clear Sky Optical Depth for Diffuse Irradiance (taud) {dimensionless}

SizingPeriod:DesignDay,
    Seattle Boeing Field  Isis Ann Htg 99.6% Condns DB,  !- Name
    12,                      !- Month
    21,                      !- Day of Month
    WinterDesignDay,         !- Day Type
    -4.5,                    !- Maximum Dry-Bulb Temperature {C}
    0,                       !- Daily Dry-Bulb Temperature Range {deltaC}
    DefaultMultipliers,      !- Dry-Bulb Temperature Range Modifier Type
    ,                        !- Dry-Bulb Temperature Range Modifier Day Schedule Name
    Wetbulb,                 !- Humidity Condition Type
    -4.5,                    !- Wetbulb or DewPoint at Maximum Dry-Bulb {C}
    ,                        !- Humidity Condition Day Schedule Name
    ,                        !- Humidity Ratio at Maximum Dry-Bulb {kgWater/kgDryAir}
    ,                        !- Enthalpy at Maximum Dry-Bulb {J/kg}
    ,                        !- Daily Wet-Bulb Temperature Range {deltaC}
    101085,                  !- Barometric Pressure {Pa}
    2.6,                     !- Wind Speed {m/s}
    150,                     !- Wind Direction {deg}
    No,                      !- Rain Indicator
    No,                      !- Snow Indicator
    No,                      !- Daylight Saving Time Indicator
    ASHRAEClearSky,          !- Solar Model Indicator
    ,                        !- Beam Solar Day Schedule Name
    ,                        !- Diffuse Solar Day Schedule Name
    ,                        !- ASHRAE Clear Sky Optical Depth for Beam Irradiance (taub) {dimensionless}
    ,                        !- ASHRAE Clear Sky Optical Depth for Diffuse Irradiance (taud) {dimensionless}
    0;                       !- Sky Clearness


!-   ===========  ALL OBJECTS IN CLASS: RUNPERIOD ===========

RunPeriod,
    Run Period 1,            !- Name
    1,                       !- Begin Month
    1,                       !- Begin Day of Month
    2009,                    !- Begin Year
    12,                      !- End Month
    31,                      !- End Day of Month
    2009,                    !- End Year
    Thursday,                !- Day of Week for Start Day
    No,                      !- Use Weather File Holidays and Special Days
    No,                      !- Use Weather File Daylight Saving Period
    No,                      !- Apply Weekend Holiday Rule
    Yes,                     !- Use Weather File Rain Indicators
    Yes;                     !- Use Weather File Snow Indicators


!-   ===========  ALL OBJECTS IN CLASS: SITE:GROUNDTEMPERATURE:BUILDINGSURFACE ===========

Site:GroundTemperature:BuildingSurface,
    19.527,                  !- January Ground Temperature {C}
    19.502,                  !- February Ground Temperature {C}
    19.536,                  !- March Ground Temperature {C}
    19.598,                  !- April Ground Temperature {C}
    20.002,                  !- May Ground Temperature {C}
    21.64,                   !- June Ground Temperature {C}
    22.225,                  !- July Ground Temperature {C}
    22.375,                  !- August Ground Temperature {C}
    21.449,                  !- September Ground Temperature {C}
    20.121,                  !- October Ground Temperature {C}
    19.802,                  !- November Ground Temperature {C}
    19.633;                  !- December Ground Temperature {C}


!-   ===========  ALL OBJECTS IN CLASS: SITE:WATERMAINSTEMPERATURE ===========

Site:WaterMainsTemperature,
    Correlation,             !- Calculation Method
    ,                        !- Temperature Schedule Name
    9.69,                    !- Annual Average Outdoor Air Temperature {C}
    28.1;                    !- Maximum Difference In Monthly Average Outdoor Air Temperatures {deltaC}


!-   ===========  ALL OBJECTS IN CLASS: SCHEDULETYPELIMITS ===========

ScheduleTypeLimits,
    Fractional,              !- Name
    0,                       !- Lower Limit Value
    1,                       !- Upper Limit Value
    Continuous;              !- Numeric Type

ScheduleTypeLimits,
    blocks-3191_retail_1_Core Thermostat Schedule Type Limits,  !- Name
    0,                       !- Lower Limit Value
    4,                       !- Upper Limit Value
    DISCRETE;                !- Numeric Type

ScheduleTypeLimits,
    Temperature,             !- Name
    ,                        !- Lower Limit Value
    ,                        !- Upper Limit Value
    Continuous,              !- Numeric Type
    temperature;             !- Unit Type

ScheduleTypeLimits,
    ActivityLevel,           !- Name
    0,                       !- Lower Limit Value
    ,                        !- Upper Limit Value
    Continuous,              !- Numeric Type
    activitylevel;           !- Unit Type

ScheduleTypeLimits,
    Dimensionless,           !- Name
    ,                        !- Lower Limit Value
    ,                        !- Upper Limit Value
    Continuous;              !- Numeric Type

ScheduleTypeLimits,
    OnOff,                   !- Name
    0,                       !- Lower Limit Value
    1,                       !- Upper Limit Value
    Discrete,                !- Numeric Type
    availability;            !- Unit Type


!-   ===========  ALL OBJECTS IN CLASS: SCHEDULE:DAY:INTERVAL ===========

Schedule:Day:Interval,
    PNNL_TSPR_Retail_Lighting_Schedule_Week_Day,  !- Name
    Fractional,              !- Schedule Type Limits Name
    No,                      !- Interpolate to Timestep
    01:00,                   !- Time 1 {hh:mm}
    0.05,                    !- Value Until Time 1
    02:00,                   !- Time 2 {hh:mm}
    0.05,                    !- Value Until Time 2
    03:00,                   !- Time 3 {hh:mm}
    0.05,                    !- Value Until Time 3
    04:00,                   !- Time 4 {hh:mm}
    0.05,                    !- Value Until Time 4
    05:00,                   !- Time 5 {hh:mm}
    0.05,                    !- Value Until Time 5
    06:00,                   !- Time 6 {hh:mm}
    0.05,                    !- Value Until Time 6
    07:00,                   !- Time 7 {hh:mm}
    0.05,                    !- Value Until Time 7
    08:00,                   !- Time 8 {hh:mm}
    0.05,                    !- Value Until Time 8
    09:00,                   !- Time 9 {hh:mm}
    0.2,                     !- Value Until Time 9
    10:00,                   !- Time 10 {hh:mm}
    0.4,                     !- Value Until Time 10
    11:00,                   !- Time 11 {hh:mm}
    0.9,                     !- Value Until Time 11
    12:00,                   !- Time 12 {hh:mm}
    0.9,                     !- Value Until Time 12
    13:00,                   !- Time 13 {hh:mm}
    0.9,                     !- Value Until Time 13
    14:00,                   !- Time 14 {hh:mm}
    0.9,                     !- Value Until Time 14
    15:00,                   !- Time 15 {hh:mm}
    0.9,                     !- Value Until Time 15
    16:00,                   !- Time 16 {hh:mm}
    0.9,                     !- Value Until Time 16
    17:00,                   !- Time 17 {hh:mm}
    0.9,                     !- Value Until Time 17
    18:00,                   !- Time 18 {hh:mm}
    0.9,                     !- Value Until Time 18
    19:00,                   !- Time 19 {hh:mm}
    0.9,                     !- Value Until Time 19
    20:00,                   !- Time 20 {hh:mm}
    0.5,                     !- Value Until Time 20
    21:00,                   !- Time 21 {hh:mm}
    0.5,                     !- Value Until Time 21
    22:00,                   !- Time 22 {hh:mm}
    0.5,                     !- Value Until Time 22
    23:00,                   !- Time 23 {hh:mm}
    0.2,                     !- Value Until Time 23
    24:00,                   !- Time 24 {hh:mm}
    0.05;                    !- Value Until Time 24

Schedule:Day:Interval,
    PNNL_TSPR_Retail_Lighting_Schedule_Saturday,  !- Name
    Fractional,              !- Schedule Type Limits Name
    No,                      !- Interpolate to Timestep
    01:00,                   !- Time 1 {hh:mm}
    0.05,                    !- Value Until Time 1
    02:00,                   !- Time 2 {hh:mm}
    0.05,                    !- Value Until Time 2
    03:00,                   !- Time 3 {hh:mm}
    0.05,                    !- Value Until Time 3
    04:00,                   !- Time 4 {hh:mm}
    0.05,                    !- Value Until Time 4
    05:00,                   !- Time 5 {hh:mm}
    0.05,                    !- Value Until Time 5
    06:00,                   !- Time 6 {hh:mm}
    0.05,                    !- Value Until Time 6
    07:00,                   !- Time 7 {hh:mm}
    0.05,                    !- Value Until Time 7
    08:00,                   !- Time 8 {hh:mm}
    0.05,                    !- Value Until Time 8
    09:00,                   !- Time 9 {hh:mm}
    0.1,                     !- Value Until Time 9
    10:00,                   !- Time 10 {hh:mm}
    0.3,                     !- Value Until Time 10
    11:00,                   !- Time 11 {hh:mm}
    0.6,                     !- Value Until Time 11
    12:00,                   !- Time 12 {hh:mm}
    0.9,                     !- Value Until Time 12
    13:00,                   !- Time 13 {hh:mm}
    0.9,                     !- Value Until Time 13
    14:00,                   !- Time 14 {hh:mm}
    0.9,                     !- Value Until Time 14
    15:00,                   !- Time 15 {hh:mm}
    0.9,                     !- Value Until Time 15
    16:00,                   !- Time 16 {hh:mm}
    0.9,                     !- Value Until Time 16
    17:00,                   !- Time 17 {hh:mm}
    0.9,                     !- Value Until Time 17
    18:00,                   !- Time 18 {hh:mm}
    0.9,                     !- Value Until Time 18
    19:00,                   !- Time 19 {hh:mm}
    0.9,                     !- Value Until Time 19
    20:00,                   !- Time 20 {hh:mm}
    0.5,                     !- Value Until Time 20
    21:00,                   !- Time 21 {hh:mm}
    0.3,                     !- Value Until Time 21
    22:00,                   !- Time 22 {hh:mm}
    0.3,                     !- Value Until Time 22
    23:00,                   !- Time 23 {hh:mm}
    0.1,                     !- Value Until Time 23
    24:00,                   !- Time 24 {hh:mm}
    0.05;                    !- Value Until Time 24

Schedule:Day:Interval,
    PNNL_TSPR_Retail_Lighting_Schedule_Sunday,  !- Name
    Fractional,              !- Schedule Type Limits Name
    No,                      !- Interpolate to Timestep
    01:00,                   !- Time 1 {hh:mm}
    0.05,                    !- Value Until Time 1
    02:00,                   !- Time 2 {hh:mm}
    0.05,                    !- Value Until Time 2
    03:00,                   !- Time 3 {hh:mm}
    0.05,                    !- Value Until Time 3
    04:00,                   !- Time 4 {hh:mm}
    0.05,                    !- Value Until Time 4
    05:00,                   !- Time 5 {hh:mm}
    0.05,                    !- Value Until Time 5
    06:00,                   !- Time 6 {hh:mm}
    0.05,                    !- Value Until Time 6
    07:00,                   !- Time 7 {hh:mm}
    0.05,                    !- Value Until Time 7
    08:00,                   !- Time 8 {hh:mm}
    0.05,                    !- Value Until Time 8
    09:00,                   !- Time 9 {hh:mm}
    0.05,                    !- Value Until Time 9
    10:00,                   !- Time 10 {hh:mm}
    0.05,                    !- Value Until Time 10
    11:00,                   !- Time 11 {hh:mm}
    0.1,                     !- Value Until Time 11
    12:00,                   !- Time 12 {hh:mm}
    0.4,                     !- Value Until Time 12
    13:00,                   !- Time 13 {hh:mm}
    0.4,                     !- Value Until Time 13
    14:00,                   !- Time 14 {hh:mm}
    0.6,                     !- Value Until Time 14
    15:00,                   !- Time 15 {hh:mm}
    0.6,                     !- Value Until Time 15
    16:00,                   !- Time 16 {hh:mm}
    0.6,                     !- Value Until Time 16
    17:00,                   !- Time 17 {hh:mm}
    0.6,                     !- Value Until Time 17
    18:00,                   !- Time 18 {hh:mm}
    0.6,                     !- Value Until Time 18
    19:00,                   !- Time 19 {hh:mm}
    0.4,                     !- Value Until Time 19
    20:00,                   !- Time 20 {hh:mm}
    0.2,                     !- Value Until Time 20
    21:00,                   !- Time 21 {hh:mm}
    0.05,                    !- Value Until Time 21
    22:00,                   !- Time 22 {hh:mm}
    0.05,                    !- Value Until Time 22
    23:00,                   !- Time 23 {hh:mm}
    0.05,                    !- Value Until Time 23
    24:00,                   !- Time 24 {hh:mm}
    0.05;                    !- Value Until Time 24

Schedule:Day:Interval,
    PNNL_TSPR_Retail_Lighting_Schedule_Summer_Design_Day,  !- Name
    Fractional,              !- Schedule Type Limits Name
    No,                      !- Interpolate to Timestep
    01:00,                   !- Time 1 {hh:mm}
    1,                       !- Value Until Time 1
    02:00,                   !- Time 2 {hh:mm}
    1,                       !- Value Until Time 2
    03:00,                   !- Time 3 {hh:mm}
    1,                       !- Value Until Time 3
    04:00,                   !- Time 4 {hh:mm}
    1,                       !- Value Until Time 4
    05:00,                   !- Time 5 {hh:mm}
    1,                       !- Value Until Time 5
    06:00,                   !- Time 6 {hh:mm}
    1,                       !- Value Until Time 6
    07:00,                   !- Time 7 {hh:mm}
    1,                       !- Value Until Time 7
    08:00,                   !- Time 8 {hh:mm}
    1,                       !- Value Until Time 8
    09:00,                   !- Time 9 {hh:mm}
    1,                       !- Value Until Time 9
    10:00,                   !- Time 10 {hh:mm}
    1,                       !- Value Until Time 10
    11:00,                   !- Time 11 {hh:mm}
    1,                       !- Value Until Time 11
    12:00,                   !- Time 12 {hh:mm}
    1,                       !- Value Until Time 12
    13:00,                   !- Time 13 {hh:mm}
    1,                       !- Value Until Time 13
    14:00,                   !- Time 14 {hh:mm}
    1,                       !- Value Until Time 14
    15:00,                   !- Time 15 {hh:mm}
    1,                       !- Value Until Time 15
    16:00,                   !- Time 16 {hh:mm}
    1,                       !- Value Until Time 16
    17:00,                   !- Time 17 {hh:mm}
    1,                       !- Value Until Time 17
    18:00,                   !- Time 18 {hh:mm}
    1,                       !- Value Until Time 18
    19:00,                   !- Time 19 {hh:mm}
    1,                       !- Value Until Time 19
    20:00,                   !- Time 20 {hh:mm}
    1,                       !- Value Until Time 20
    21:00,                   !- Time 21 {hh:mm}
    1,                       !- Value Until Time 21
    22:00,                   !- Time 22 {hh:mm}
    1,                       !- Value Until Time 22
    23:00,                   !- Time 23 {hh:mm}
    1,                       !- Value Until Time 23
    24:00,                   !- Time 24 {hh:mm}
    1;                       !- Value Until Time 24

Schedule:Day:Interval,
    PNNL_TSPR_Retail_Lighting_Schedule_Winter_Design_Day,  !- Name
    Fractional,              !- Schedule Type Limits Name
    No,                      !- Interpolate to Timestep
    01:00,                   !- Time 1 {hh:mm}
    0,                       !- Value Until Time 1
    02:00,                   !- Time 2 {hh:mm}
    0,                       !- Value Until Time 2
    03:00,                   !- Time 3 {hh:mm}
    0,                       !- Value Until Time 3
    04:00,                   !- Time 4 {hh:mm}
    0,                       !- Value Until Time 4
    05:00,                   !- Time 5 {hh:mm}
    0,                       !- Value Until Time 5
    06:00,                   !- Time 6 {hh:mm}
    0,                       !- Value Until Time 6
    07:00,                   !- Time 7 {hh:mm}
    0,                       !- Value Until Time 7
    08:00,                   !- Time 8 {hh:mm}
    0,                       !- Value Until Time 8
    09:00,                   !- Time 9 {hh:mm}
    0,                       !- Value Until Time 9
    10:00,                   !- Time 10 {hh:mm}
    0,                       !- Value Until Time 10
    11:00,                   !- Time 11 {hh:mm}
    0,                       !- Value Until Time 11
    12:00,                   !- Time 12 {hh:mm}
    0,                       !- Value Until Time 12
    13:00,                   !- Time 13 {hh:mm}
    0,                       !- Value Until Time 13
    14:00,                   !- Time 14 {hh:mm}
    0,                       !- Value Until Time 14
    15:00,                   !- Time 15 {hh:mm}
    0,                       !- Value Until Time 15
    16:00,                   !- Time 16 {hh:mm}
    0,                       !- Value Until Time 16
    17:00,                   !- Time 17 {hh:mm}
    0,                       !- Value Until Time 17
    18:00,                   !- Time 18 {hh:mm}
    0,                       !- Value Until Time 18
    19:00,                   !- Time 19 {hh:mm}
    0,                       !- Value Until Time 19
    20:00,                   !- Time 20 {hh:mm}
    0,                       !- Value Until Time 20
    21:00,                   !- Time 21 {hh:mm}
    0,                       !- Value Until Time 21
    22:00,                   !- Time 22 {hh:mm}
    0,                       !- Value Until Time 22
    23:00,                   !- Time 23 {hh:mm}
    0,                       !- Value Until Time 23
    24:00,                   !- Time 24 {hh:mm}
    0;                       !- Value Until Time 24

Schedule:Day:Interval,
    PNNL_TSPR_Retail_Heating_Schedule_Week_Day,  !- Name
    Temperature,             !- Schedule Type Limits Name
    No,                      !- Interpolate to Timestep
    01:00,                   !- Time 1 {hh:mm}
    15.5555555555556,        !- Value Until Time 1
    02:00,                   !- Time 2 {hh:mm}
    15.5555555555556,        !- Value Until Time 2
    03:00,                   !- Time 3 {hh:mm}
    15.5555555555556,        !- Value Until Time 3
    04:00,                   !- Time 4 {hh:mm}
    15.5555555555556,        !- Value Until Time 4
    05:00,                   !- Time 5 {hh:mm}
    15.5555555555556,        !- Value Until Time 5
    06:00,                   !- Time 6 {hh:mm}
    15.5555555555556,        !- Value Until Time 6
    07:00,                   !- Time 7 {hh:mm}
    15.5555555555556,        !- Value Until Time 7
    08:00,                   !- Time 8 {hh:mm}
    18.3333333333333,        !- Value Until Time 8
    09:00,                   !- Time 9 {hh:mm}
    21.1111111111111,        !- Value Until Time 9
    10:00,                   !- Time 10 {hh:mm}
    21.1111111111111,        !- Value Until Time 10
    11:00,                   !- Time 11 {hh:mm}
    21.1111111111111,        !- Value Until Time 11
    12:00,                   !- Time 12 {hh:mm}
    21.1111111111111,        !- Value Until Time 12
    13:00,                   !- Time 13 {hh:mm}
    21.1111111111111,        !- Value Until Time 13
    14:00,                   !- Time 14 {hh:mm}
    21.1111111111111,        !- Value Until Time 14
    15:00,                   !- Time 15 {hh:mm}
    21.1111111111111,        !- Value Until Time 15
    16:00,                   !- Time 16 {hh:mm}
    21.1111111111111,        !- Value Until Time 16
    17:00,                   !- Time 17 {hh:mm}
    21.1111111111111,        !- Value Until Time 17
    18:00,                   !- Time 18 {hh:mm}
    21.1111111111111,        !- Value Until Time 18
    19:00,                   !- Time 19 {hh:mm}
    21.1111111111111,        !- Value Until Time 19
    20:00,                   !- Time 20 {hh:mm}
    21.1111111111111,        !- Value Until Time 20
    21:00,                   !- Time 21 {hh:mm}
    21.1111111111111,        !- Value Until Time 21
    22:00,                   !- Time 22 {hh:mm}
    21.1111111111111,        !- Value Until Time 22
    23:00,                   !- Time 23 {hh:mm}
    15.5555555555556,        !- Value Until Time 23
    24:00,                   !- Time 24 {hh:mm}
    15.5555555555556;        !- Value Until Time 24

Schedule:Day:Interval,
    PNNL_TSPR_Retail_Heating_Schedule_Saturday,  !- Name
    Temperature,             !- Schedule Type Limits Name
    No,                      !- Interpolate to Timestep
    01:00,                   !- Time 1 {hh:mm}
    15.5555555555556,        !- Value Until Time 1
    02:00,                   !- Time 2 {hh:mm}
    15.5555555555556,        !- Value Until Time 2
    03:00,                   !- Time 3 {hh:mm}
    15.5555555555556,        !- Value Until Time 3
    04:00,                   !- Time 4 {hh:mm}
    15.5555555555556,        !- Value Until Time 4
    05:00,                   !- Time 5 {hh:mm}
    15.5555555555556,        !- Value Until Time 5
    06:00,                   !- Time 6 {hh:mm}
    15.5555555555556,        !- Value Until Time 6
    07:00,                   !- Time 7 {hh:mm}
    15.5555555555556,        !- Value Until Time 7
    08:00,                   !- Time 8 {hh:mm}
    18.3333333333333,        !- Value Until Time 8
    09:00,                   !- Time 9 {hh:mm}
    21.1111111111111,        !- Value Until Time 9
    10:00,                   !- Time 10 {hh:mm}
    21.1111111111111,        !- Value Until Time 10
    11:00,                   !- Time 11 {hh:mm}
    21.1111111111111,        !- Value Until Time 11
    12:00,                   !- Time 12 {hh:mm}
    21.1111111111111,        !- Value Until Time 12
    13:00,                   !- Time 13 {hh:mm}
    21.1111111111111,        !- Value Until Time 13
    14:00,                   !- Time 14 {hh:mm}
    21.1111111111111,        !- Value Until Time 14
    15:00,                   !- Time 15 {hh:mm}
    21.1111111111111,        !- Value Until Time 15
    16:00,                   !- Time 16 {hh:mm}
    21.1111111111111,        !- Value Until Time 16
    17:00,                   !- Time 17 {hh:mm}
    21.1111111111111,        !- Value Until Time 17
    18:00,                   !- Time 18 {hh:mm}
    21.1111111111111,        !- Value Until Time 18
    19:00,                   !- Time 19 {hh:mm}
    21.1111111111111,        !- Value Until Time 19
    20:00,                   !- Time 20 {hh:mm}
    21.1111111111111,        !- Value Until Time 20
    21:00,                   !- Time 21 {hh:mm}
    21.1111111111111,        !- Value Until Time 21
    22:00,                   !- Time 22 {hh:mm}
    21.1111111111111,        !- Value Until Time 22
    23:00,                   !- Time 23 {hh:mm}
    21.1111111111111,        !- Value Until Time 23
    24:00,                   !- Time 24 {hh:mm}
    15.5555555555556;        !- Value Until Time 24

Schedule:Day:Interval,
    PNNL_TSPR_Retail_Heating_Schedule_Sunday,  !- Name
    Temperature,             !- Schedule Type Limits Name
    No,                      !- Interpolate to Timestep
    01:00,                   !- Time 1 {hh:mm}
    15.5555555555556,        !- Value Until Time 1
    02:00,                   !- Time 2 {hh:mm}
    15.5555555555556,        !- Value Until Time 2
    03:00,                   !- Time 3 {hh:mm}
    15.5555555555556,        !- Value Until Time 3
    04:00,                   !- Time 4 {hh:mm}
    15.5555555555556,        !- Value Until Time 4
    05:00,                   !- Time 5 {hh:mm}
    15.5555555555556,        !- Value Until Time 5
    06:00,                   !- Time 6 {hh:mm}
    15.5555555555556,        !- Value Until Time 6
    07:00,                   !- Time 7 {hh:mm}
    15.5555555555556,        !- Value Until Time 7
    08:00,                   !- Time 8 {hh:mm}
    15.5555555555556,        !- Value Until Time 8
    09:00,                   !- Time 9 {hh:mm}
    15.5555555555556,        !- Value Until Time 9
    10:00,                   !- Time 10 {hh:mm}
    18.3333333333333,        !- Value Until Time 10
    11:00,                   !- Time 11 {hh:mm}
    21.1111111111111,        !- Value Until Time 11
    12:00,                   !- Time 12 {hh:mm}
    21.1111111111111,        !- Value Until Time 12
    13:00,                   !- Time 13 {hh:mm}
    21.1111111111111,        !- Value Until Time 13
    14:00,                   !- Time 14 {hh:mm}
    21.1111111111111,        !- Value Until Time 14
    15:00,                   !- Time 15 {hh:mm}
    21.1111111111111,        !- Value Until Time 15
    16:00,                   !- Time 16 {hh:mm}
    21.1111111111111,        !- Value Until Time 16
    17:00,                   !- Time 17 {hh:mm}
    21.1111111111111,        !- Value Until Time 17
    18:00,                   !- Time 18 {hh:mm}
    21.1111111111111,        !- Value Until Time 18
    19:00,                   !- Time 19 {hh:mm}
    21.1111111111111,        !- Value Until Time 19
    20:00,                   !- Time 20 {hh:mm}
    21.1111111111111,        !- Value Until Time 20
    21:00,                   !- Time 21 {hh:mm}
    15.5555555555556,        !- Value Until Time 21
    22:00,                   !- Time 22 {hh:mm}
    15.5555555555556,        !- Value Until Time 22
    23:00,                   !- Time 23 {hh:mm}
    15.5555555555556,        !- Value Until Time 23
    24:00,                   !- Time 24 {hh:mm}