
OS:Version,
  {227108c0-d744-4cff-892b-18db9ca394e4}, !- Handle
  2.9.1;                                  !- Version Identifier

OS:Schedule:Ruleset,
  {7eaff3b5-610f-4bea-8727-96e38518904a}, !- Handle
  Always_On,                              !- Name
  {d9674173-da19-4ee9-90da-86ad0ffce440}, !- Schedule Type Limits Name
  {60cfadbb-9588-4416-9e60-3e1a8d77ccb0}, !- Default Day Schedule Name
  {2c4a24a2-ad48-40cc-9d63-359ddf55f378}, !- Summer Design Day Schedule Name
  {71f4ff93-40d3-4f3c-9c56-0c1a82a3887a}; !- Winter Design Day Schedule Name

OS:Schedule:Day,
  {60cfadbb-9588-4416-9e60-3e1a8d77ccb0}, !- Handle
  Always_On_Default,                      !- Name
  {d9674173-da19-4ee9-90da-86ad0ffce440}, !- Schedule Type Limits Name
  ,                                       !- Interpolate to Timestep
  24,                                     !- Hour 1
  0,                                      !- Minute 1
  1;                                      !- Value Until Time 1

OS:Schedule:Day,
  {71f4ff93-40d3-4f3c-9c56-0c1a82a3887a}, !- Handle
  Always_On_Winter_Design_Day,            !- Name
  {d9674173-da19-4ee9-90da-86ad0ffce440}, !- Schedule Type Limits Name
  ,                                       !- Interpolate to Timestep
  24,                                     !- Hour 1
  0,                                      !- Minute 1
  1;                                      !- Value Until Time 1

OS:Schedule:Day,
  {2c4a24a2-ad48-40cc-9d63-359ddf55f378}, !- Handle
  Always_On_Summer_Design_Day,            !- Name
  {d9674173-da19-4ee9-90da-86ad0ffce440}, !- Schedule Type Limits Name
  ,                                       !- Interpolate to Timestep
  24,                                     !- Hour 1
  0,                                      !- Minute 1
  1;                                      !- Value Until Time 1

OS:Construction,
  {ff85121a-044e-46b2-bfa8-d41ceadfd7cf}, !- Handle
  INT-FLOOR-TOPSIDE,                      !- Name
  ,                                       !- Surface Rendering Name
  {3a2dfe2e-51f1-4464-a4cb-01528b8b1512}, !- Layer 1
  {84533fa9-224b-4ebd-9c8b-7f50b642f0fe}, !- Layer 2
  {ef73d66f-6bee-44a1-a75c-00df29ee997f}; !- Layer 3

OS:Material,
  {3a2dfe2e-51f1-4464-a4cb-01528b8b1512}, !- Handle
  1/2IN Gypsum,                           !- Name
  Smooth,                                 !- Roughness
  0.0127,                                 !- Thickness {m}
  0.1600,                                 !- Conductivity {W/m-K}
  784.9000,                               !- Density {kg/m3}
  830.0000,                               !- Specific Heat {J/kg-K}
  0.9000,                                 !- Thermal Absorptance
  0.9200,                                 !- Solar Absorptance
  0.9200;                                 !- Visible Absorptance

OS:Material,
  {84533fa9-224b-4ebd-9c8b-7f50b642f0fe}, !- Handle
  4IN CONCRETE HW,                        !- Name
  Rough,                                  !- Roughness
  0.1016,                                 !- Thickness {m}
  1.3110,                                 !- Conductivity {W/m-K}
  2240.0000,                              !- Density {kg/m3}
  836.8000,                               !- Specific Heat {J/kg-K}
  0.9000,                                 !- Thermal Absorptance
  0.7000,                                 !- Solar Absorptance
  0.7000;                                 !- Visible Absorptance

OS:Material:NoMass,
  {ef73d66f-6bee-44a1-a75c-00df29ee997f}, !- Handle
  CP02 CARPET PAD,                        !- Name
  VeryRough,                              !- Roughness
  0.2165,                                 !- Thermal Resistance {m2-K/W}
  0.9000,                                 !- Thermal Absorptance
  0.7000,                                 !- Solar Absorptance
  0.8000;                                 !- Visible Absorptance

OS:StandardsInformation:Construction,
  {915544fd-ed42-47d5-aa74-7fe701b6e358}, !- Handle
  {ff85121a-044e-46b2-bfa8-d41ceadfd7cf}, ! Construction Name
  ,                                       ! Intended Surface Type
  Mass,                                   ! Construction Type
  0,                                      ! Perturbable Layer
  Insulation,                             ! Perturbable Layer Type
  ;                                       ! Other Perturbable Layer Type

OS:Construction,
  {07f21e28-8f40-49c2-baef-e37992303096}, !- Handle
  INT-FLOOR-UNDERSIDE,                    !- Name
  ,                                       !- Surface Rendering Name
  {ef73d66f-6bee-44a1-a75c-00df29ee997f}, !- Layer 1
  {84533fa9-224b-4ebd-9c8b-7f50b642f0fe}, !- Layer 2
  {3a2dfe2e-51f1-4464-a4cb-01528b8b1512}; !- Layer 3

OS:StandardsInformation:Construction,
  {4abd8ffc-41be-4127-afb8-55dccc3e127d}, !- Handle
  {07f21e28-8f40-49c2-baef-e37992303096}, ! Construction Name
  ,                                       ! Intended Surface Type
  Mass,                                   ! Construction Type
  1,                                      ! Perturbable Layer
  Insulation,                             ! Perturbable Layer Type
  ;                                       ! Other Perturbable Layer Type

OS:Construction,
  {1ad2eba6-d26b-4cb4-986d-b1b1bb695d6f}, !- Handle
  Standard_Int-Wall,                      !- Name
  ,                                       !- Surface Rendering Name
  {3a2dfe2e-51f1-4464-a4cb-01528b8b1512}, !- Layer 1
  {3a2dfe2e-51f1-4464-a4cb-01528b8b1512}; !- Layer 2

OS:StandardsInformation:Construction,
  {a969d851-245d-4b35-a2c2-6fd2d7623af2}, !- Handle
  {1ad2eba6-d26b-4cb4-986d-b1b1bb695d6f}, ! Construction Name
  ,                                       ! Intended Surface Type
  Mass,                                   ! Construction Type
  0,                                      ! Perturbable Layer
  Insulation,                             ! Perturbable Layer Type
  ;                                       ! Other Perturbable Layer Type

OS:DefaultSurfaceConstructions,
  {d70db3c4-4917-4c9f-a163-bd035a591157}, !- Handle
  Default Surface Constructions 1,        !- Name
  {ff85121a-044e-46b2-bfa8-d41ceadfd7cf}, !- Floor Construction Name
  {1ad2eba6-d26b-4cb4-986d-b1b1bb695d6f}, !- Wall Construction Name
  {07f21e28-8f40-49c2-baef-e37992303096}; !- Roof Ceiling Construction Name

OS:DefaultConstructionSet,
  {c304c534-bdcd-4679-a6e7-04aed347c0c9}, !- Handle
  Default Construction Set 1,             !- Name
  ,                                       !- Default Exterior Surface Constructions Name
  {d70db3c4-4917-4c9f-a163-bd035a591157}, !- Default Interior Surface Constructions Name
  ,                                       !- Default Ground Contact Surface Constructions Name
  ,                                       !- Default Exterior SubSurface Constructions Name
  ,                                       !- Default Interior SubSurface Constructions Name
  ,                                       !- Interior Partition Construction Name
  ,                                       !- Space Shading Construction Name
  ,                                       !- Building Shading Construction Name
  ,                                       !- Site Shading Construction Name
  ;                                       !- Adiabatic Surface Construction Name

OS:Building,
  {08945a15-c89b-44b4-a19b-053e44e21d57}, !- Handle
  TSPR Retail Test- Baseline same as Proposed, !- Name
  ,                                       !- Building Sector Type
  ,                                       !- North Axis {deg}
  ,                                       !- Nominal Floor to Floor Height {m}
  ,                                       !- Space Type Name
  {c304c534-bdcd-4679-a6e7-04aed347c0c9}, !- Default Construction Set Name
  ;                                       !- Default Schedule Set Name

OS:Schedule:Ruleset,
  {ee6d6281-5c9e-4ccb-a6ac-6aa6d83e78d2}, !- Handle
  PNNL_TSPR_Retail_Hvac_Schedule,         !- Name
  {d9674173-da19-4ee9-90da-86ad0ffce440}, !- Schedule Type Limits Name
  {59207676-1622-430f-9c06-fa9a966d2e3a}, !- Default Day Schedule Name
  {49ef96a4-1cc9-405a-b4c5-9bc56ec8efa8}, !- Summer Design Day Schedule Name
  {12ee8824-02ee-4bca-8cfa-32808854bc49}; !- Winter Design Day Schedule Name

OS:Schedule:Day,
  {59207676-1622-430f-9c06-fa9a966d2e3a}, !- Handle
  PNNL_TSPR_Retail_Hvac_Schedule_Week_Day, !- Name
  {d9674173-da19-4ee9-90da-86ad0ffce440}, !- Schedule Type Limits Name
  ,                                       !- Interpolate to Timestep
  1,                                      !- Hour 1
  0,                                      !- Minute 1
  0,                                      !- Value Until Time 1
  2,                                      !- Hour 2
  0,                                      !- Minute 2
  0,                                      !- Value Until Time 2
  3,                                      !- Hour 3
  0,                                      !- Minute 3
  0,                                      !- Value Until Time 3
  4,                                      !- Hour 4
  0,                                      !- Minute 4
  0,                                      !- Value Until Time 4
  5,                                      !- Hour 5
  0,                                      !- Minute 5
  0,                                      !- Value Until Time 5
  6,                                      !- Hour 6
  0,                                      !- Minute 6
  0,                                      !- Value Until Time 6
  7,                                      !- Hour 7
  0,                                      !- Minute 7
  0,                                      !- Value Until Time 7
  8,                                      !- Hour 8
  0,                                      !- Minute 8
  1,                                      !- Value Until Time 8
  9,                                      !- Hour 9
  0,                                      !- Minute 9
  1,                                      !- Value Until Time 9
  10,                                     !- Hour 10
  0,                                      !- Minute 10
  1,                                      !- Value Until Time 10
  11,                                     !- Hour 11
  0,                                      !- Minute 11
  1,                                      !- Value Until Time 11
  12,                                     !- Hour 12
  0,                                      !- Minute 12
  1,                                      !- Value Until Time 12
  13,                                     !- Hour 13
  0,                                      !- Minute 13
  1,                                      !- Value Until Time 13
  14,                                     !- Hour 14
  0,                                      !- Minute 14
  1,                                      !- Value Until Time 14
  15,                                     !- Hour 15
  0,                                      !- Minute 15
  1,                                      !- Value Until Time 15
  16,                                     !- Hour 16
  0,                                      !- Minute 16
  1,                                      !- Value Until Time 16
  17,                                     !- Hour 17
  0,                                      !- Minute 17
  1,                                      !- Value Until Time 17
  18,                                     !- Hour 18
  0,                                      !- Minute 18
  1,                                      !- Value Until Time 18
  19,                                     !- Hour 19
  0,                                      !- Minute 19
  1,                                      !- Value Until Time 19
  20,                                     !- Hour 20
  0,                                      !- Minute 20
  1,                                      !- Value Until Time 20
  21,                                     !- Hour 21
  0,                                      !- Minute 21
  1,                                      !- Value Until Time 21
  22,                                     !- Hour 22
  0,                                      !- Minute 22
  1,                                      !- Value Until Time 22
  23,                                     !- Hour 23
  0,                                      !- Minute 23
  0,                                      !- Value Until Time 23
  24,                                     !- Hour 24
  0,                                      !- Minute 24
  0;                                      !- Value Until Time 24

OS:Schedule:Day,
  {49ef96a4-1cc9-405a-b4c5-9bc56ec8efa8}, !- Handle
  PNNL_TSPR_Retail_Hvac_Schedule_Summer_Design_Day, !- Name
  {d9674173-da19-4ee9-90da-86ad0ffce440}, !- Schedule Type Limits Name
  ,                                       !- Interpolate to Timestep
  1,                                      !- Hour 1
  0,                                      !- Minute 1
  0,                                      !- Value Until Time 1
  2,                                      !- Hour 2
  0,                                      !- Minute 2
  0,                                      !- Value Until Time 2
  3,                                      !- Hour 3
  0,                                      !- Minute 3
  0,                                      !- Value Until Time 3
  4,                                      !- Hour 4
  0,                                      !- Minute 4
  0,                                      !- Value Until Time 4
  5,                                      !- Hour 5
  0,                                      !- Minute 5
  0,                                      !- Value Until Time 5
  6,                                      !- Hour 6
  0,                                      !- Minute 6
  0,                                      !- Value Until Time 6
  7,                                      !- Hour 7
  0,                                      !- Minute 7
  0,                                      !- Value Until Time 7
  8,                                      !- Hour 8
  0,                                      !- Minute 8
  1,                                      !- Value Until Time 8
  9,                                      !- Hour 9
  0,                                      !- Minute 9
  1,                                      !- Value Until Time 9
  10,                                     !- Hour 10
  0,                                      !- Minute 10
  1,                                      !- Value Until Time 10
  11,                                     !- Hour 11
  0,                                      !- Minute 11
  1,                                      !- Value Until Time 11
  12,                                     !- Hour 12
  0,                                      !- Minute 12
  1,                                      !- Value Until Time 12
  13,                                     !- Hour 13
  0,                                      !- Minute 13
  1,                                      !- Value Until Time 13
  14,                                     !- Hour 14
  0,                                      !- Minute 14
  1,                                      !- Value Until Time 14
  15,                                     !- Hour 15
  0,                                      !- Minute 15
  1,                                      !- Value Until Time 15
  16,                                     !- Hour 16
  0,                                      !- Minute 16
  1,                                      !- Value Until Time 16
  17,                                     !- Hour 17
  0,                                      !- Minute 17
  1,                                      !- Value Until Time 17
  18,                                     !- Hour 18
  0,                                      !- Minute 18
  1,                                      !- Value Until Time 18
  19,                                     !- Hour 19
  0,                                      !- Minute 19
  1,                                      !- Value Until Time 19
  20,                                     !- Hour 20
  0,                                      !- Minute 20
  1,                                      !- Value Until Time 20
  21,                                     !- Hour 21
  0,                                      !- Minute 21
  1,                                      !- Value Until Time 21
  22,                                     !- Hour 22
  0,                                      !- Minute 22
  1,                                      !- Value Until Time 22
  23,                                     !- Hour 23
  0,                                      !- Minute 23
  0,                                      !- Value Until Time 23
  24,                                     !- Hour 24
  0,                                      !- Minute 24
  0;                                      !- Value Until Time 24

OS:Schedule:Day,
  {12ee8824-02ee-4bca-8cfa-32808854bc49}, !- Handle
  PNNL_TSPR_Retail_Hvac_Schedule_Winter_Design_Day, !- Name
  {d9674173-da19-4ee9-90da-86ad0ffce440}, !- Schedule Type Limits Name
  ,                                       !- Interpolate to Timestep
  1,                                      !- Hour 1
  0,                                      !- Minute 1
  0,                                      !- Value Until Time 1
  2,                                      !- Hour 2
  0,                                      !- Minute 2
  0,                                      !- Value Until Time 2
  3,                                      !- Hour 3
  0,                                      !- Minute 3
  0,                                      !- Value Until Time 3
  4,                                      !- Hour 4
  0,                                      !- Minute 4
  0,                                      !- Value Until Time 4
  5,                                      !- Hour 5
  0,                                      !- Minute 5
  0,                                      !- Value Until Time 5
  6,                                      !- Hour 6
  0,                                      !- Minute 6
  0,                                      !- Value Until Time 6
  7,                                      !- Hour 7
  0,                                      !- Minute 7
  0,                                      !- Value Until Time 7
  8,                                      !- Hour 8
  0,                                      !- Minute 8
  1,                                      !- Value Until Time 8
  9,                                      !- Hour 9
  0,                                      !- Minute 9
  1,                                      !- Value Until Time 9
  10,                                     !- Hour 10
  0,                                      !- Minute 10
  1,                                      !- Value Until Time 10
  11,                                     !- Hour 11
  0,                                      !- Minute 11
  1,                                      !- Value Until Time 11
  12,                                     !- Hour 12
  0,                                      !- Minute 12
  1,                                      !- Value Until Time 12
  13,                                     !- Hour 13
  0,                                      !- Minute 13
  1,                                      !- Value Until Time 13
  14,                                     !- Hour 14
  0,                                      !- Minute 14
  1,                                      !- Value Until Time 14
  15,                                     !- Hour 15
  0,                                      !- Minute 15
  1,                                      !- Value Until Time 15
  16,                                     !- Hour 16
  0,                                      !- Minute 16
  1,                                      !- Value Until Time 16
  17,                                     !- Hour 17
  0,                                      !- Minute 17
  1,                                      !- Value Until Time 17
  18,                                     !- Hour 18
  0,                                      !- Minute 18
  1,                                      !- Value Until Time 18
  19,                                     !- Hour 19
  0,                                      !- Minute 19
  1,                                      !- Value Until Time 19
  20,                                     !- Hour 20
  0,                                      !- Minute 20
  1,                                      !- Value Until Time 20
  21,                                     !- Hour 21
  0,                                      !- Minute 21
  1,                                      !- Value Until Time 21
  22,                                     !- Hour 22
  0,                                      !- Minute 22
  1,                                      !- Value Until Time 22
  23,                                     !- Hour 23
  0,                                      !- Minute 23
  1,                                      !- Value Until Time 23
  24,                                     !- Hour 24
  0,                                      !- Minute 24
  0;                                      !- Value Until Time 24

OS:Schedule:Rule,
  {f3702686-295a-4910-a317-18b36811cacd}, !- Handle
  PNNL_TSPR_Retail_Hvac_Schedule_Sunday_Rule, !- Name
  {ee6d6281-5c9e-4ccb-a6ac-6aa6d83e78d2}, !- Schedule Ruleset Name
  0,                                      !- Rule Order
  {7fd12f66-8b93-4600-9598-d394ff9f2cbf}, !- Day Schedule Name
  Yes;                                    !- Apply Sunday

OS:Schedule:Day,
  {7fd12f66-8b93-4600-9598-d394ff9f2cbf}, !- Handle
  PNNL_TSPR_Retail_Hvac_Schedule_Sunday,  !- Name
  {d9674173-da19-4ee9-90da-86ad0ffce440}, !- Schedule Type Limits Name
  ,                                       !- Interpolate to Timestep
  1,                                      !- Hour 1
  0,                                      !- Minute 1
  0,                                      !- Value Until Time 1
  2,                                      !- Hour 2
  0,                                      !- Minute 2
  0,                                      !- Value Until Time 2
  3,                                      !- Hour 3
  0,                                      !- Minute 3
  0,                                      !- Value Until Time 3
  4,                                      !- Hour 4
  0,                                      !- Minute 4
  0,                                      !- Value Until Time 4
  5,                                      !- Hour 5
  0,                                      !- Minute 5
  0,                                      !- Value Until Time 5
  6,                                      !- Hour 6
  0,                                      !- Minute 6
  0,                                      !- Value Until Time 6
  7,                                      !- Hour 7
  0,                                      !- Minute 7
  0,                                      !- Value Until Time 7
  8,                                      !- Hour 8
  0,                                      !- Minute 8
  0,                                      !- Value Until Time 8
  9,                                      !- Hour 9
  0,                                      !- Minute 9
  0,                                      !- Value Until Time 9
  10,                                     !- Hour 10
  0,                                      !- Minute 10
  1,                                      !- Value Until Time 10
  11,                                     !- Hour 11
  0,                                      !- Minute 11
  1,                                      !- Value Until Time 11
  12,                                     !- Hour 12
  0,                                      !- Minute 12
  1,                                      !- Value Until Time 12
  13,                                     !- Hour 13
  0,                                      !- Minute 13
  1,                                      !- Value Until Time 13
  14,                                     !- Hour 14
  0,                                      !- Minute 14
  1,                                      !- Value Until Time 14
  15,                                     !- Hour 15
  0,                                      !- Minute 15
  1,                                      !- Value Until Time 15
  16,                                     !- Hour 16
  0,                                      !- Minute 16
  1,                                      !- Value Until Time 16
  17,                                     !- Hour 17
  0,                                      !- Minute 17
  1,                                      !- Value Until Time 17
  18,                                     !- Hour 18
  0,                                      !- Minute 18
  1,                                      !- Value Until Time 18
  19,                                     !- Hour 19
  0,                                      !- Minute 19
  1,                                      !- Value Until Time 19
  20,                                     !- Hour 20
  0,                                      !- Minute 20
  1,                                      !- Value Until Time 20
  21,                                     !- Hour 21
  0,                                      !- Minute 21
  0,                                      !- Value Until Time 21
  22,                                     !- Hour 22
  0,                                      !- Minute 22
  0,                                      !- Value Until Time 22
  23,                                     !- Hour 23
  0,                                      !- Minute 23
  0,                                      !- Value Until Time 23
  24,                                     !- Hour 24
  0,                                      !- Minute 24
  0;                                      !- Value Until Time 24

OS:Schedule:Rule,
  {874e864f-67ef-4cc3-a261-c2d1fc945c55}, !- Handle
  PNNL_TSPR_Retail_Hvac_Schedule_Saturday_Rule, !- Name
  {ee6d6281-5c9e-4ccb-a6ac-6aa6d83e78d2}, !- Schedule Ruleset Name
  1,                                      !- Rule Order
  {e650c9ba-c485-4cb8-a936-6d73e642f089}, !- Day Schedule Name
  ,                                       !- Apply Sunday
  ,                                       !- Apply Monday
  ,                                       !- Apply Tuesday
  ,                                       !- Apply Wednesday
  ,                                       !- Apply Thursday
  ,                                       !- Apply Friday
  Yes;                                    !- Apply Saturday

OS:Schedule:Day,
  {e650c9ba-c485-4cb8-a936-6d73e642f089}, !- Handle
  PNNL_TSPR_Retail_Hvac_Schedule_Saturday, !- Name
  {d9674173-da19-4ee9-90da-86ad0ffce440}, !- Schedule Type Limits Name
  ,                                       !- Interpolate to Timestep
  1,                                      !- Hour 1
  0,                                      !- Minute 1
  0,                                      !- Value Until Time 1
  2,                                      !- Hour 2
  0,                                      !- Minute 2
  0,                                      !- Value Until Time 2
  3,                                      !- Hour 3
  0,                                      !- Minute 3
  0,                                      !- Value Until Time 3
  4,                                      !- Hour 4
  0,                                      !- Minute 4
  0,                                      !- Value Until Time 4
  5,                                      !- Hour 5
  0,                                      !- Minute 5
  0,                                      !- Value Until Time 5
  6,                                      !- Hour 6
  0,                                      !- Minute 6
  0,                                      !- Value Until Time 6
  7,                                      !- Hour 7
  0,                                      !- Minute 7
  0,                                      !- Value Until Time 7
  8,                                      !- Hour 8
  0,                                      !- Minute 8
  1,                                      !- Value Until Time 8
  9,                                      !- Hour 9
  0,                                      !- Minute 9
  1,                                      !- Value Until Time 9
  10,                                     !- Hour 10
  0,                                      !- Minute 10
  1,                                      !- Value Until Time 10
  11,                                     !- Hour 11
  0,                                      !- Minute 11
  1,                                      !- Value Until Time 11
  12,                                     !- Hour 12
  0,                                      !- Minute 12
  1,                                      !- Value Until Time 12
  13,                                     !- Hour 13
  0,                                      !- Minute 13
  1,                                      !- Value Until Time 13
  14,                                     !- Hour 14
  0,                                      !- Minute 14
  1,                                      !- Value Until Time 14
  15,                                     !- Hour 15
  0,                                      !- Minute 15
  1,                                      !- Value Until Time 15
  16,                                     !- Hour 16
  0,                                      !- Minute 16
  1,                                      !- Value Until Time 16
  17,                                     !- Hour 17